pglib_opf_case2746wp_k/dapi/pglib_opf_case2746wp_k_14regions_dapi.m
% -------------------------------------------------------------------------
% Partitioned MATPOWER Case File
% Copyright (c) 2025 Milad Hasanzadeh
% Generated on: 2026-06-14
% This file contains partitioned data for 14 regions


% -------------------- mpc_regionR1 --------------------

mpc_regionR1.version = '2';
mpc_regionR1.baseMVA = 100.0000;
mpc_regionR1.bus = [
%	bus_i       type        Pd          Qd          Gs          Bs          area        Vm          Va          baseKV      zone        Vmax        Vmin        
	 1	 1	 0	 0	 0	 0	 1	 1.03	 0	 220	 3	 1.11	 0.95;
	 2	 1	 0	 0	 0	 0	 1	 1.03	 0	 220	 3	 1.11	 0.95;
	 3	 1	 0	 0	 0	 0	 1	 1.03	 0	 220	 3	 1.11	 0.95;
	 4	 1	 0	 0	 0	 0	 1	 1.03	 0	 220	 3	 1.11	 0.95;
	 5	 2	 7.09	 18	 0	 0	 1	 1.03	 0	 220	 3	 1.11	 0.95;
	 6	 2	 8.1	 15	 0	 0	 1	 1.03	 0	 220	 3	 1.11	 0.95;
	 7	 1	 0	 0	 0	 0	 1	 1.035	 0	 110	 3	 1.12	 0.95;
	 8	 1	 1.08	 0.28	 0	 0	 1	 1.035	 0	 110	 3	 1.12	 0.95;
	 9	 1	 13.94	 18.56	 0	 0	 1	 1.035	 0	 110	 3	 1.12	 0.95;
	 10	 1	 0	 0	 0	 0	 1	 1.035	 0	 110	 3	 1.12	 0.95;
	 11	 2	 22.86	 8.82	 0	 0	 1	 1.035	 0	 110	 3	 1.12	 0.95;
	 12	 1	 12.14	 3.95	 0	 0	 1	 1.035	 0	 110	 3	 1.12	 0.95;
	 13	 1	 11.43	 2.94	 0	 0	 1	 1.035	 0	 110	 3	 1.12	 0.95;
	 14	 1	 6.37	 1.73	 0	 0	 1	 1.035	 0	 110	 3	 1.12	 0.95;
	 15	 1	 15.42	 4.78	 0	 0	 1	 1.035	 0	 110	 3	 1.12	 0.95;
	 16	 1	 7.82	 3.38	 0	 0	 1	 1.035	 0	 110	 3	 1.12	 0.95;
	 17	 1	 8.42	 2.14	 0	 0	 1	 1.035	 0	 110	 3	 1.12	 0.95;
	 18	 1	 0	 0	 0	 0	 1	 1.035	 0	 110	 3	 1.12	 0.95;
	 19	 1	 33.46	 1.93	 0	 0	 1	 1.035	 0	 110	 3	 1.12	 0.95;
	 20	 1	 0	 0	 0	 0	 1	 1.035	 0	 110	 3	 1.12	 0.95;
	 21	 1	 19.61	 6.34	 0	 0	 1	 1.035	 0	 110	 3	 1.12	 0.95;
	 22	 1	 0	 0	 0	 0	 1	 1.035	 0	 110	 3	 1.12	 0.95;
	 23	 2	 23.46	 19.51	 0	 0	 1	 1.035	 0	 110	 3	 1.12	 0.95;
	 24	 2	 0	 4	 0	 0	 1	 1.035	 0	 110	 3	 1.12	 0.95;
	 25	 1	 10.82	 3.45	 0	 0	 1	 1.035	 0	 110	 3	 1.12	 0.95;
	 26	 1	 0	 0.07	 0	 0	 1	 1.035	 0	 110	 3	 1.12	 0.95;
	 27	 1	 0	 0	 0	 0	 1	 1.035	 0	 110	 3	 1.12	 0.95;
	 28	 1	 9.74	 2.47	 0	 0	 1	 1.035	 0	 110	 3	 1.12	 0.95;
	 29	 1	 5.9	 1.75	 0	 0	 1	 1.035	 0	 110	 3	 1.12	 0.95;
	 30	 1	 18.51	 6.53	 0	 0	 1	 1.035	 0	 110	 3	 1.12	 0.95;
	 31	 1	 0	 0	 0	 0	 1	 1.035	 0	 110	 3	 1.12	 0.95;
	 32	 2	 0	 4	 0	 0	 1	 1.035	 0	 110	 3	 1.12	 0.95;
	 33	 1	 0	 0	 0	 0	 1	 1.035	 0	 110	 3	 1.12	 0.95;
	 34	 1	 0.02	 0.14	 0	 0	 1	 1.035	 0	 110	 3	 1.12	 0.95;
	 35	 1	 0	 0	 0	 0	 1	 1.035	 0	 110	 3	 1.12	 0.95;
	 36	 1	 0	 0	 0	 0	 1	 1.035	 0	 110	 3	 1.12	 0.95;
	 37	 1	 0	 0	 0	 0	 1	 1.035	 0	 110	 3	 1.12	 0.95;
	 38	 1	 0	 0	 0	 0	 1	 1.035	 0	 110	 3	 1.12	 0.95;
	 39	 1	 2.89	 0.75	 0	 0	 1	 1.035	 0	 110	 3	 1.12	 0.95;
	 40	 1	 0	 0	 0	 0	 1	 1.035	 0	 110	 3	 1.12	 0.95;
	 41	 1	 1.8	 0.37	 0	 0	 1	 1.035	 0	 110	 3	 1.12	 0.95;
	 42	 1	 22.88	 5.74	 0	 0	 1	 1.035	 0	 110	 3	 1.12	 0.95;
	 43	 1	 0	 0	 0	 0	 1	 1.035	 0	 110	 3	 1.12	 0.95;
	 44	 1	 3.97	 1.33	 0	 0	 1	 1.035	 0	 110	 3	 1.12	 0.95;
	 45	 1	 0	 0	 0	 0	 1	 1.035	 0	 110	 3	 1.12	 0.95;
	 46	 1	 0	 0	 0	 0	 1	 1.035	 0	 110	 3	 1.12	 0.95;
	 47	 1	 14.06	 5.13	 0	 0	 1	 1.035	 0	 110	 3	 1.12	 0.95;
	 48	 1	 10.22	 3.82	 0	 0	 1	 1.035	 0	 110	 3	 1.12	 0.95;
	 49	 1	 0	 0	 0	 0	 1	 1.035	 0	 110	 3	 1.12	 0.95;
	 50	 1	 4.33	 0.37	 0	 0	 1	 1.035	 0	 110	 3	 1.12	 0.95;
	 51	 1	 0	 0	 0	 0	 1	 1.035	 0	 110	 3	 1.12	 0.95;
	 52	 1	 4.33	 1.68	 0	 0	 1	 1.035	 0	 110	 3	 1.12	 0.95;
	 53	 1	 1.2	 0.37	 0	 0	 1	 1.035	 0	 110	 3	 1.12	 0.95;
	 54	 1	 2.4	 0.84	 0	 0	 1	 1.035	 0	 110	 3	 1.12	 0.95;
	 55	 1	 0.48	 0.19	 0	 0	 1	 1.035	 0	 110	 3	 1.12	 0.95;
	 56	 1	 0	 0	 0	 0	 1	 1.035	 0	 110	 3	 1.12	 0.95;
	 57	 1	 0	 0	 0	 0	 1	 1.035	 0	 110	 3	 1.12	 0.95;
	 58	 2	 9.8	 9.12	 0	 0	 1	 1.035	 0	 110	 3	 1.12	 0.95;
	 59	 2	 11.66	 12.53	 0	 0	 1	 1.035	 0	 110	 3	 1.12	 0.95;
	 60	 1	 0	 0	 0	 0	 1	 1.035	 0	 110	 3	 1.12	 0.95;
	 61	 1	 0	 0	 0	 0	 1	 1.035	 0	 110	 3	 1.12	 0.95;
	 62	 1	 57.69	 16.79	 0	 0	 1	 1.035	 0	 110	 3	 1.12	 0.95;
	 63	 2	 91.32	 40.08	 0	 0	 1	 1.035	 0	 110	 3	 1.12	 0.95;
	 64	 2	 0	-0.01	 0	 0	 1	 1.035	 0	 110	 3	 1.12	 0.95;
	 65	 1	 7.83	 1.76	 0	 0	 1	 1.035	 0	 110	 3	 1.12	 0.95;
	 66	 1	 0	 0	 0	 0	 1	 1.035	 0	 110	 3	 1.12	 0.95;
	 67	 1	 1.44	 0.37	 0	 0	 1	 1.035	 0	 110	 3	 1.12	 0.95;
	 68	 1	 7.82	 2.56	 0	 0	 1	 1.035	 0	 110	 3	 1.12	 0.95;
	 69	 1	 0	 0	 0	 0	 1	 1.035	 0	 110	 3	 1.12	 0.95;
	 70	 1	 7.58	 1.63	 0	 0	 1	 1.035	 0	 110	 3	 1.12	 0.95;
	 71	 1	 4.09	 0.98	 0	 0	 1	 1.035	 0	 110	 3	 1.12	 0.95;
	 72	 1	 11.19	 2.84	 0	 0	 1	 1.035	 0	 110	 3	 1.12	 0.95;
	 73	 1	 0	 0	 0	 0	 1	 1.035	 0	 110	 3	 1.12	 0.95;
	 74	 1	 0	 0	 0	 0	 1	 1.035	 0	 110	 3	 1.12	 0.95;
	 75	 1	 0	 0	 0	 0	 1	 1.035	 0	 110	 3	 1.12	 0.95;
	 76	 1	 4.21	 1.59	 0	 0	 1	 1.035	 0	 110	 3	 1.12	 0.95;
	 77	 1	 0	 0	 0	 0	 1	 1.035	 0	 110	 3	 1.12	 0.95;
	 78	 1	 0.84	 0.33	 0	 0	 1	 1.035	 0	 110	 3	 1.12	 0.95;
	 79	 1	 0	 0	 0	 0	 1	 1.035	 0	 110	 3	 1.12	 0.95;
	 80	 1	 11.43	 2.47	 0	 0	 1	 1.035	 0	 110	 3	 1.12	 0.95;
	 81	 1	 0	 0	 0	 0	 1	 1.035	 0	 110	 3	 1.12	 0.95;
	 82	 1	 10.6	 4.81	 0	 0	 1	 1.035	 0	 110	 3	 1.12	 0.95;
	 83	 1	 0	 0	 0	 0	 1	 1.035	 0	 110	 3	 1.12	 0.95;
	 84	 1	 0	 0.07	 0	 0	 1	 1.035	 0	 110	 3	 1.12	 0.95;
	 85	 1	 0	 0	 0	 0	 1	 1.035	 0	 110	 3	 1.12	 0.95;
	 86	 1	 0	 0	 0	 0	 1	 1.035	 0	 110	 3	 1.12	 0.95;
	 87	 1	 0	 0	 0	 0	 1	 1.035	 0	 110	 3	 1.12	 0.95;
	 88	 1	 0	 0	 0	 0	 1	 1.035	 0	 110	 3	 1.12	 0.95;
	 89	 1	 0	 0	 0	 0	 1	 1.035	 0	 110	 3	 1.12	 0.95;
	 90	 1	 15.43	 5.77	 0	 0	 1	 1.035	 0	 110	 3	 1.12	 0.95;
	 91	 1	 6.37	 1.68	 0	 0	 1	 1.035	 0	 110	 3	 1.12	 0.95;
	 92	 1	 0	 0	 0	 0	 1	 1.035	 0	 110	 3	 1.12	 0.95;
	 93	 2	 16.52	 18.57	 0	 0	 1	 1.035	 0	 110	 3	 1.12	 0.95;
	 94	 2	 9.73	 16.27	 0	 0	 1	 1.035	 0	 110	 3	 1.12	 0.95;
	 95	 2	 0	 0	 0	 0	 1	 1.035	 0	 110	 3	 1.12	 0.95;
	 96	 1	 0	 0	 0	 0	 1	 1.035	 0	 110	 3	 1.12	 0.95;
	 97	 1	 3.01	 1.13	 0	 0	 1	 1.035	 0	 110	 3	 1.12	 0.95;
	 98	 1	 0	 0	 0	 0	 1	 1.035	 0	 110	 3	 1.12	 0.95;
	 99	 1	 15.46	 5.05	 0	 0	 1	 1.035	 0	 110	 3	 1.12	 0.95;
	 100	 1	 13.94	 2.89	 0	 0	 1	 1.035	 0	 110	 3	 1.12	 0.95;
	 101	 1	 0	 0.07	 0	 0	 1	 1.035	 0	 110	 3	 1.12	 0.95;
	 102	 1	 0	 0.07	 0	 0	 1	 1.035	 0	 110	 3	 1.12	 0.95;
	 103	 1	 11.67	 3.03	 0	 0	 1	 1.035	 0	 110	 3	 1.12	 0.95;
	 104	 1	 0	 0	 0	 0	 1	 1.035	 0	 110	 3	 1.12	 0.95;
	 105	 1	 31.2	 9.66	 0	 0	 1	 1.035	 0	 110	 3	 1.12	 0.95;
	 106	 1	 0	 0	 0	 0	 1	 1.035	 0	 110	 3	 1.12	 0.95;
	 107	 1	 16.95	 10.17	 0	 0	 1	 1.035	 0	 110	 3	 1.12	 0.95;
	 108	 1	 0	 0	 0	 0	 1	 1.035	 0	 110	 3	 1.12	 0.95;
	 109	 1	 6.01	 1.19	 0	 0	 1	 1.035	 0	 110	 3	 1.12	 0.95;
	 110	 1	 0	 0	 0	 0	 1	 1.035	 0	 110	 3	 1.12	 0.95;
	 111	 1	 1.68	 0.36	 0	 0	 1	 1.035	 0	 110	 3	 1.12	 0.95;
	 112	 1	 0	 0	 0	 0	 1	 1.035	 0	 110	 3	 1.12	 0.95;
	 113	 1	 0.96	 0.27	 0	 0	 1	 1.035	 0	 110	 3	 1.12	 0.95;
	 114	 1	 0	 0	 0	 0	 1	 1.035	 0	 110	 3	 1.12	 0.95;
	 115	 2	 37.7	 41.3	 0	 0	 1	 1.035	 0	 110	 3	 1.12	 0.95;
	 116	 1	 9.27	 2.6	 0	 0	 1	 1.035	 0	 110	 3	 1.12	 0.95;
	 117	 1	 19.96	 6.79	 0	 0	 1	 1.035	 0	 110	 3	 1.12	 0.95;
	 118	 1	 0	 0	 0	 0	 1	 1.035	 0	 110	 3	 1.12	 0.95;
	 119	 1	 0.84	 0.36	 0	 0	 1	 1.035	 0	 110	 3	 1.12	 0.95;
	 120	 1	 0	 0	 0	 0	 1	 1.035	 0	 110	 3	 1.12	 0.95;
	 121	 1	 3.61	 1.33	 0	 0	 1	 1.035	 0	 110	 3	 1.12	 0.95;
	 122	 1	 9.75	 2.54	 0	 0	 1	 1.035	 0	 110	 3	 1.12	 0.95;
	 123	 1	 16.72	 4.41	 0	 0	 1	 1.035	 0	 110	 3	 1.12	 0.95;
	 124	 1	 0	 0	 0	 0	 1	 1.035	 0	 110	 3	 1.12	 0.95;
	 125	 1	 8.42	 2.79	 0	 0	 1	 1.035	 0	 110	 3	 1.12	 0.95;
	 126	 1	 0	 0	 0	 0	 1	 1.035	 0	 110	 3	 1.12	 0.95;
	 127	 1	 0	 0	 0	 0	 1	 1.035	 0	 110	 3	 1.12	 0.95;
	 128	 1	 15.4	 3.96	 0	 0	 1	 1.035	 0	 110	 3	 1.12	 0.95;
	 129	 1	 4.82	 1.44	 0	 0	 1	 1.035	 0	 110	 3	 1.12	 0.95;
	 130	 1	 0	 0	 0	 0	 1	 1.035	 0	 110	 3	 1.12	 0.95;
	 131	 1	 2.16	 0.74	 0	 0	 1	 1.035	 0	 110	 3	 1.12	 0.95;
	 132	 1	 0	 0	 0	 0	 1	 1.035	 0	 110	 3	 1.12	 0.95;
	 133	 1	 0	 0	 0	 0	 1	 1.035	 0	 110	 3	 1.12	 0.95;
	 134	 1	 0	 0	 0	 0	 1	 1.035	 0	 110	 3	 1.12	 0.95;
	 135	 1	 4.57	 1.28	 0	 0	 1	 1.035	 0	 110	 3	 1.12	 0.95;
	 136	 1	 12.89	 3.78	 0	 0	 1	 1.035	 0	 110	 3	 1.12	 0.95;
	 137	 1	 6.61	 1.4	 0	 0	 1	 1.035	 0	 110	 3	 1.12	 0.95;
	 138	 1	 0	 0	 0	 0	 1	 1.035	 0	 110	 3	 1.12	 0.95;
	 139	 1	 0	 0	 0	 0	 1	 1.035	 0	 110	 3	 1.12	 0.95;
	 140	 1	 2.89	 0.75	 0	 0	 1	 1.035	 0	 110	 3	 1.12	 0.95;
	 141	 1	 25.84	 8.5	 0	 0	 1	 1.035	 0	 110	 3	 1.12	 0.95;
	 142	 1	 0	 0	 0	 0	 1	 1.035	 0	 110	 3	 1.12	 0.95;
	 143	 1	 7.22	 1.07	 0	 0	 1	 1.035	 0	 110	 3	 1.12	 0.95;
	 144	 1	 0	 0	 0	 0	 1	 1.035	 0	 110	 3	 1.12	 0.95;
	 145	 1	 10.94	 3.54	 0	 0	 1	 1.035	 0	 110	 3	 1.12	 0.95;
	 146	 1	 8.42	 2	 0	 0	 1	 1.035	 0	 110	 3	 1.12	 0.95;
	 147	 1	 8.42	 2.47	 0	 0	 1	 1.035	 0	 110	 3	 1.12	 0.95;
	 148	 1	 6.85	 1.58	 0	 0	 1	 1.035	 0	 110	 3	 1.12	 0.95;
	 149	 1	 0	 0	 0	 0	 1	 1.035	 0	 110	 3	 1.12	 0.95;
	 150	 1	 8.65	 1.58	 0	 0	 1	 1.035	 0	 110	 3	 1.12	 0.95;
	 151	 1	 4.93	 1.77	 0	 0	 1	 1.035	 0	 110	 3	 1.12	 0.95;
	 152	 1	 0	 0	 0	 0	 1	 1.035	 0	 110	 3	 1.12	 0.95;
	 153	 1	 9.51	 2.45	 0	 0	 1	 1.035	 0	 110	 3	 1.12	 0.95;
	 154	 1	 4.81	 1.44	 0	 0	 1	 1.035	 0	 110	 3	 1.12	 0.95;
	 155	 1	 0	 0	 0	 0	 1	 1.035	 0	 110	 3	 1.12	 0.95;
	 156	 1	 0	 0	 0	 0	 1	 1.035	 0	 110	 3	 1.12	 0.95;
	 157	 1	 10.23	 1.8	 0	 0	 1	 1.035	 0	 110	 3	 1.12	 0.95;
	 158	 1	 0	 0	 0	 0	 1	 1.035	 0	 110	 3	 1.12	 0.95;
	 159	 1	 5.78	 2.02	 0	 0	 1	 1.035	 0	 110	 3	 1.12	 0.95;
	 160	 1	 5.06	 1.79	 0	 0	 1	 1.035	 0	 110	 3	 1.12	 0.95;
	 161	 1	 0	 0	 0	 0	 1	 1.035	 0	 110	 3	 1.12	 0.95;
	 162	 1	 0	 0	 0	 0	 1	 1.035	 0	 110	 3	 1.12	 0.95;
	 163	 1	 19.49	 6.25	 0	 0	 1	 1.035	 0	 110	 3	 1.12	 0.95;
	 164	 1	 0	 0	 0	 0	 1	 1.035	 0	 110	 3	 1.12	 0.95;
	 165	 1	 0	 0	 0	 0	 1	 1.035	 0	 110	 3	 1.12	 0.95;
	 166	 1	 2.77	 0.79	 0	 0	 1	 1.035	 0	 110	 3	 1.12	 0.95;
	 167	 1	 6.25	 1.54	 0	 0	 1	 1.035	 0	 110	 3	 1.12	 0.95;
	 168	 1	 3.97	 0.34	 0	 0	 1	 1.035	 0	 110	 3	 1.12	 0.95;
	 169	 1	 0	 0	 0	 0	 1	 1.035	 0	 110	 3	 1.12	 0.95;
	 170	 1	 0	 0	 0	 0	 1	 1.035	 0	 110	 3	 1.12	 0.95;
	 171	 2	 8.64	 3.07	 0	 0	 1	 1.035	 0	 110	 3	 1.12	 0.95;
	 172	 1	 13.23	 2.34	 0	 0	 1	 1.035	 0	 110	 3	 1.12	 0.95;
	 173	 1	 0	 0	 0	 0	 1	 1.035	 0	 110	 3	 1.12	 0.95;
	 174	 1	 2.89	 0.56	 0	 0	 1	 1.035	 0	 110	 3	 1.12	 0.95;
	 175	 1	 0	 0	 0	 0	 1	 1.035	 0	 110	 3	 1.12	 0.95;
	 176	 1	 11.32	 2.89	 0	 0	 1	 1.035	 0	 110	 3	 1.12	 0.95;
	 177	 1	 0	 0	 0	 0	 1	 1.035	 0	 110	 3	 1.12	 0.95;
	 178	 1	 4.82	 1.69	 0	 0	 1	 1.035	 0	 110	 3	 1.12	 0.95;
	 179	 1	 5.9	 1.74	 0	 0	 1	 1.035	 0	 110	 3	 1.12	 0.95;
	 180	 1	 0	 0	 0	 0	 1	 1.035	 0	 110	 3	 1.12	 0.95;
	 181	 1	 5.9	 1.74	 0	 0	 1	 1.035	 0	 110	 3	 1.12	 0.95;
	 182	 1	 10.71	 2.75	 0	 0	 1	 1.035	 0	 110	 3	 1.12	 0.95;
	 183	 1	 0	 0	 0	 0	 1	 1.035	 0	 110	 3	 1.12	 0.95;
	 184	 1	 12.99	 4.33	 0	 0	 1	 1.035	 0	 110	 3	 1.12	 0.95;
	 185	 1	 0	 0	 0	 0	 1	 1.035	 0	 110	 3	 1.12	 0.95;
	 186	 1	 0	 0.07	 0	 0	 1	 1.035	 0	 110	 3	 1.12	 0.95;
	 187	 1	 4.81	 1.4	 0	 0	 1	 1.035	 0	 110	 3	 1.12	 0.95;
	 188	 2	 0	-0.01	 0	 0	 1	 1.035	 0	 110	 3	 1.12	 0.95;
	 189	 1	 6.5	 1.86	 0	 0	 1	 1.035	 0	 110	 3	 1.12	 0.95;
	 190	 1	 0	 0	 0	 0	 1	 1.035	 0	 110	 3	 1.12	 0.95;
	 191	 1	 7	 1.33	 0	 0	 1	 1.035	 0	 110	 3	 1.12	 0.95;
	 192	 1	 9.16	 1.86	 0	 0	 1	 1.035	 0	 110	 3	 1.12	 0.95;
	 193	 1	 0	 0	 0	 0	 1	 1.035	 0	 110	 3	 1.12	 0.95;
	 194	 1	 0	 0	 0	 0	 1	 1.035	 0	 110	 3	 1.12	 0.95;
	 195	 1	 1.44	 0.37	 0	 0	 1	 1.035	 0	 110	 3	 1.12	 0.95;
	 196	 1	 0	 0	 0	 0	 1	 1.035	 0	 110	 3	 1.12	 0.95;
	 197	 1	 0.59	 0	 0	 0	 1	 1.035	 0	 110	 3	 1.12	 0.95;
	 198	 1	 0	 0	 0	 0	 1	 1.035	 0	 110	 3	 1.12	 0.95;
];

mpc_regionR1.gen = [
%	bus         Pg          Qg          Qmax        Qmin        Vg          mBase       status      Pmax        Pmin        Pc1         Pc2         Qc1min      Qc1max      Qc2min      Qc2max      ramp_agc    ramp_10     ramp_30     ramp_q      apf         
	 5	 107.25	 1	 90	-88	 1.03	 150	 1	 175	 39.5;
	 6	 93.75	 8	 90	-74	 1.03	 150	 1	 148	 39.5;
	 11	 86.5	 0	 70	-70	 1.035	 87.7	 1	 139	 34;
	 23	 36.75	 1	 32	-30	 1.035	 54	 1	 60	 13.5;
	 23	 0	 0	 32	-0	 1.035	 42.5	 0	 0	 0;
	 23	 17.25	 0	 17	-17	 1.035	 11.4	 1	 33	 1.5;
	 23	 180	 0	 160	-160	 1.035	 162.2	 1	 320	 40;
	 24	 83.5	 23	 110	-64	 1.035	 162.2	 1	 127	 40;
	 32	 137.5	 0	 110	-110	 1.035	 174.1	 1	 220	 55;
	 58	 0	 0	 42	-0	 1.035	 65.3	 0	 0	 0;
	 58	 0	 0	 42	-0	 1.035	 65.3	 0	 0	 0;
	 58	 50.5	 8.25	 52.5	-36	 1.035	 87.5	 1	 71	 30;
	 59	 147.5	 0	 133	-133	 1.035	 87.5	 1	 265	 30;
	 59	 71.75	 0	 61	-61	 1.035	 65.3	 1	 121	 22.5;
	 63	 41.99975	 0	 40	-40	 1.035	 22.4	 1	 79	 4.9995;
	 63	 19.49975	 0	 19.2	-19.2	 1.035	 50.2	 1	 34	 4.9995;
	 64	 29.7525	 0	 28	-28	 1.035	 9.4	 1	 56	 3.505;
	 93	 0	 0	 90	-5	 1.035	 142.1	 0	 79	 5;
	 93	 170.75	 0	 151	-151	 1.035	 150	 1	 302	 39.5;
	 94	 157.75	 0	 138	-138	 1.035	 150	 1	 276	 39.5;
	 95	 0	 0	 90	-67	 1.035	 150	 0	 134	 39.5;
	 115	 142.5	 0	 108	-108	 1.035	 248.3	 1	 215	 70;
	 171	 24.575	 0	 24	-24	 1.035	 8.5	 1	 47	 2.15;
	 188	 14.25275	 0	 48	-48	 1.035	 5.1	 1	 27	 1.5055;
];

mpc_regionR1.branch = [
%	fbus        tbus        r           x           b           rateA       rateB       rateC       ratio       angle       status      angmin      angmax      
	 5	 3	 0.001942	 0.013926	 0.022845	 446	 446	 446	 0	 0	 1	-30	 30;
	 6	 1	 0.001715	 0.009607	 0.014239	 335	 335	 335	 0	 0	 1	-30	 30;
	 62	 1	 0.00145	 0.069831	-0.002323	 160	 160	 160	 0.9488	 0	 1	-30	 30;
	 63	 2	 0.001651	 0.067771	-0.002807	 160	 160	 160	 1.0045	 0	 1	-30	 30;
	 75	 3	 0.00145	 0.06736	-0.006582	 160	 160	 160	 0.9972	 0	 1	-30	 30;
	 74	 4	 0.001651	 0.06694	-0.002904	 160	 160	 160	 0.9952	 0	 1	-30	 30;
	 93	 5	 0.00207	 0.093599	-0.003388	 160	 160	 160	 0.9902	 0	 1	-30	 30;
	 95	 6	 0.00186	 0.092771	-0.003001	 160	 160	 160	 0.9928	 0	 1	-30	 30;
	 69	 143	 0.002727	 0.008926	 0.000886	 140	 140	 140	 0	 0	 1	-30	 30;
	 93	 69	 0.007603	 0.023471	 0.002664	 114	 114	 114	 0	 0	 1	-30	 30;
	 68	 69	 0.000331	 0.000413	 8.2e-05	 90	 90	 90	 0	 0	 1	-30	 30;
	 45	 134	 0.004298	 0.013388	 0.001488	 140	 140	 140	 0	 0	 1	-30	 30;
	 93	 45	 0.005785	 0.017686	 0.002079	 140	 140	 140	 0	 0	 1	-30	 30;
	 133	 134	 0.006033	 0.01843	 0.002183	 140	 140	 140	 0	 0	 1	-30	 30;
	 45	 44	 0.002314	 0.002893	 0.000549	 90	 90	 90	 0	 0	 1	-30	 30;
	 155	 23	 0.005041	 0.015372	 0.001774	 140	 140	 140	 0	 0	 1	-30	 30;
	 95	 155	 0.010248	 0.031405	 0.003628	 140	 140	 140	 0	 0	 1	-30	 30;
	 155	 153	 0.005124	 0.008595	 0.000908	 90	 90	 90	 0	 0	 1	-30	 30;
	 156	 24	 0.005041	 0.015372	 0.001774	 140	 140	 140	 0	 0	 1	-30	 30;
	 95	 156	 0.010248	 0.031405	 0.003628	 140	 140	 140	 0	 0	 1	-30	 30;
	 156	 154	 0.005124	 0.008512	 0.0009	 90	 90	 90	 0	 0	 1	-30	 30;
	 88	 59	 0.014628	 0.045868	 0.005084	 140	 140	 140	 0	 0	 1	-30	 30;
	 136	 88	 0.006281	 0.019752	 0.002183	 140	 140	 140	 0	 0	 1	-30	 30;
	 88	 86	 0.00438	 0.00843	 0.000879	 90	 90	 90	 0	 0	 1	-30	 30;
	 89	 15	 0.006281	 0.019504	 0.002217	 140	 140	 140	 0	 0	 1	-30	 30;
	 168	 89	 0.005041	 0.015454	 0.001793	 140	 140	 140	 0	 0	 1	-30	 30;
	 89	 87	 0.00438	 0.00843	 0.000879	 90	 90	 90	 0	 0	 1	-30	 30;
	 95	 7	 0.012479	 0.045207	 0.00537	 114	 114	 114	 0	 0	 1	-30	 30;
	 94	 8	 0.012479	 0.045207	 0.00537	 114	 114	 114	 0	 0	 1	-30	 30;
	 110	 32	 0.002231	 0.008347	 0.000983	 162	 162	 162	 0	 0	 1	-30	 30;
	 27	 33	 0.004132	 0.01562	 0.001878	 162	 162	 162	 0	 0	 1	-30	 30;
	 95	 27	 0.004876	 0.016446	 0.00198	 140	 140	 140	 0	 0	 1	-30	 30;
	 27	 26	 0.00124	 0.004463	 0.000554	 162	 162	 162	 0	 0	 1	-30	 30;
	 105	 75	 0.005537	 0.017355	 0.001919	 140	 140	 140	 0	 0	 1	-30	 30;
	 123	 177	 0.003967	 0.011983	 0.001421	 140	 140	 140	 0	 0	 1	-30	 30;
	 116	 171	 0.002397	 0.007355	 0.000852	 140	 140	 140	 0	 0	 1	-30	 30;
	 65	 74	 0.003719	 0.011901	 0.001251	 140	 140	 140	 0	 0	 1	-30	 30;
	 46	 39	 0.005455	 0.017107	 0.001917	 140	 140	 140	 0	 0	 1	-30	 30;
	 193	 121	 0.004793	 0.014628	 0.001774	 114	 114	 114	 0	 0	 1	-30	 30;
	 28	 193	 0.001901	 0.006116	 0.000646	 114	 114	 114	 0	 0	 1	-30	 30;
	 191	 193	 8.3e-05	 0.000165	 1.7e-05	 114	 114	 114	 0	 0	 1	-30	 30;
	 28	 140	 0.001405	 0.004132	 0.000426	 114	 114	 114	 0	 0	 1	-30	 30;
	 17	 100	 0.006777	 0.021984	 0.002297	 114	 114	 114	 0	 0	 1	-30	 30;
	 52	 23	 0.001736	 0.005289	 0.000617	 57	 57	 57	 0	 0	 1	-30	 30;
	 74	 181	 0.003306	 0.010744	 0.001101	 140	 140	 140	 0	 0	 1	-30	 30;
	 74	 38	 0.001405	 0.004463	 0.000469	 114	 114	 114	 0	 0	 1	-30	 30;
	 175	 170	 0.003306	 0.010413	 0.001147	 140	 140	 140	 0	 0	 1	-30	 30;
	 54	 127	 0.011983	 0.037107	 0.004211	 140	 140	 140	 0	 0	 1	-30	 30;
	 103	 23	 0.004545	 0.013967	 0.001619	 140	 140	 140	 0	 0	 1	-30	 30;
	 139	 15	 0.005702	 0.015041	 0.001646	 120	 120	 120	 0	 0	 1	-30	 30;
	 91	 15	 0.001322	 0.002645	 0.000237	 57	 57	 57	 0	 0	 1	-30	 30;
	 92	 16	 0.001322	 0.002645	 0.000237	 57	 57	 57	 0	 0	 1	-30	 30;
	 186	 146	 0.002893	 0.007025	 0.000779	 120	 120	 120	 0	 0	 1	-30	 30;
	 187	 147	 0.002893	 0.007025	 0.000779	 120	 120	 120	 0	 0	 1	-30	 30;
	 186	 151	 0.002397	 0.007355	 0.000857	 140	 140	 140	 0	 0	 1	-30	 30;
	 74	 32	 0.003141	 0.013306	 0.001379	 162	 162	 162	 0	 0	 1	-30	 30;
	 101	 141	 0.003141	 0.021405	 0.002413	 114	 114	 114	 0	 0	 1	-30	 30;
	 24	 81	 0.006446	 0.020661	 0.002164	 114	 114	 114	 0	 0	 1	-30	 30;
	 186	 100	 0.00405	 0.012397	 0.00143	 114	 114	 114	 0	 0	 1	-30	 30;
	 75	 179	 0.001901	 0.004628	 0.000895	 140	 140	 140	 0	 0	 1	-30	 30;
	 180	 74	 0.001405	 0.004628	 0.000489	 140	 140	 140	 0	 0	 1	-30	 30;
	 16	 180	 0.008099	 0.022645	 0.002439	 120	 120	 120	 0	 0	 1	-30	 30;
	 178	 180	 0.000496	 0.00124	 0.000191	 140	 140	 140	 0	 0	 1	-30	 30;
	 75	 174	 0.001901	 0.005868	 0.000658	 140	 140	 140	 0	 0	 1	-30	 30;
	 196	 187	 0.004215	 0.009835	 0.001217	 120	 120	 120	 0	 0	 1	-30	 30;
	 53	 196	 0.002066	 0.00562	 0.000593	 120	 120	 120	 0	 0	 1	-30	 30;
	 195	 196	 0.000661	 0.002314	 0.00022	 120	 120	 120	 0	 0	 1	-30	 30;
	 40	 75	 0.001653	 0.005289	 0.000557	 120	 120	 120	 0	 0	 1	-30	 30;
	 167	 145	 0.006529	 0.023884	 0.002338	 105	 105	 105	 0	 0	 1	-30	 30;
	 186	 41	 0.003141	 0.007769	 0.000879	 120	 120	 120	 0	 0	 1	-30	 30;
	 152	 144	 0.008099	 0.051653	 0.005365	 140	 140	 140	 0	 0	 1	-30	 30;
	 187	 152	 0.007686	 0.023967	 0.002698	 114	 114	 114	 0	 0	 1	-30	 30;
	 150	 152	 0.002231	 0.007438	 0.000726	 140	 140	 140	 0	 0	 1	-30	 30;
	 114	 58	 0.009339	 0.031901	 0.003243	 140	 140	 140	 0	 0	 1	-30	 30;
	 116	 114	 0.002149	 0.006777	 0.000772	 140	 140	 140	 0	 0	 1	-30	 30;
	 114	 113	 0	 8.3e-05	 1e-05	 140	 140	 140	 0	 0	 1	-30	 30;
	 107	 58	 0.005041	 0.016364	 0.001711	 140	 140	 140	 0	 0	 1	-30	 30;
	 165	 93	 0.005785	 0.014463	 0.001636	 120	 120	 120	 0	 0	 1	-30	 30;
	 30	 85	 0.006198	 0.019504	 0.00213	 140	 140	 140	 0	 0	 1	-30	 30;
	 71	 58	 0.009587	 0.030826	 0.003265	 140	 140	 140	 0	 0	 1	-30	 30;
	 117	 58	 0.001405	 0.004298	 0.000472	 140	 140	 140	 0	 0	 1	-30	 30;
	 169	 82	 0.008182	 0.025537	 0.002863	 140	 140	 140	 0	 0	 1	-30	 30;
	 149	 59	 0.004793	 0.014711	 0.001706	 140	 140	 140	 0	 0	 1	-30	 30;
	 157	 59	 0.005041	 0.015537	 0.001801	 140	 140	 140	 0	 0	 1	-30	 30;
	 173	 11	 0.004132	 0.01281	 0.00144	 140	 140	 140	 0	 0	 1	-30	 30;
	 163	 11	 0.003471	 0.011157	 0.001198	 140	 140	 140	 0	 0	 1	-30	 30;
	 94	 50	 0.004628	 0.014297	 0.001619	 140	 140	 140	 0	 0	 1	-30	 30;
	 162	 49	 0.004711	 0.014297	 0.001699	 140	 140	 140	 0	 0	 1	-30	 30;
	 94	 162	 0.003554	 0.010992	 0.001261	 140	 140	 140	 0	 0	 1	-30	 30;
	 162	 160	 0.00157	 0.005372	 0.00052	 140	 140	 140	 0	 0	 1	-30	 30;
	 130	 12	 0.002479	 0.007686	 0.000883	 140	 140	 140	 0	 0	 1	-30	 30;
	 94	 130	 0.006116	 0.018926	 0.002142	 140	 140	 140	 0	 0	 1	-30	 30;
	 130	 129	 0.002066	 0.003802	 0.000784	 120	 120	 120	 0	 0	 1	-30	 30;
	 97	 94	 0.002397	 0.007355	 0.000828	 140	 140	 140	 0	 0	 1	-30	 30;
	 31	 116	 0.002397	 0.007769	 0.000823	 140	 140	 140	 0	 0	 1	-30	 30;
	 48	 132	 0.003719	 0.009008	 0.001363	 120	 120	 120	 0	 0	 1	-30	 30;
	 125	 115	 0.006281	 0.020083	 0.002139	 140	 140	 140	 0	 0	 1	-30	 30;
	 79	 70	 8.3e-05	 0.000248	 2.2e-05	 140	 140	 140	 0	 0	 1	-30	 30;
	 120	 79	 0.007603	 0.019587	 0.002091	 120	 120	 120	 0	 0	 1	-30	 30;
	 115	 120	 0.003141	 0.00843	 0.000857	 120	 120	 120	 0	 0	 1	-30	 30;
	 78	 79	 0.004545	 0.008512	 0.000927	 90	 90	 90	 0	 0	 1	-30	 30;
	 119	 120	 0.000496	 0.001322	 0.000133	 120	 120	 120	 0	 0	 1	-30	 30;
	 77	 70	 0.002562	 0.006777	 0.000944	 120	 120	 120	 0	 0	 1	-30	 30;
	 111	 63	 0.001653	 0.004959	 0.00059	 140	 140	 140	 0	 0	 1	-30	 30;
	 61	 71	 0.003223	 0.009752	 0.001159	 140	 140	 140	 0	 0	 1	-30	 30;
	 21	 61	 0.003058	 0.009421	 0.001058	 140	 140	 140	 0	 0	 1	-30	 30;
	 60	 61	 0	 8.3e-05	 1.2e-05	 140	 140	 140	 0	 0	 1	-30	 30;
	 63	 131	 0.001405	 0.004298	 0.000503	 140	 140	 140	 0	 0	 1	-30	 30;
	 184	 98	 0.010744	 0.032727	 0.003836	 140	 140	 140	 0	 0	 1	-30	 30;
	 70	 118	 0.008264	 0.026612	 0.002807	 140	 140	 140	 0	 0	 1	-30	 30;
	 9	 59	 0.006033	 0.020496	 0.002176	 140	 140	 140	 0	 0	 1	-30	 30;
	 10	 20	 0.003058	 0.010661	 0.001171	 140	 140	 140	 0	 0	 1	-30	 30;
	 57	 19	 0.006529	 0.020909	 0.002243	 140	 140	 140	 0	 0	 1	-30	 30;
	 83	 57	 0.002397	 0.007355	 0.000876	 140	 140	 140	 0	 0	 1	-30	 30;
	 55	 57	 0.008678	 0.02719	 0.00303	 140	 140	 140	 0	 0	 1	-30	 30;
	 56	 57	 0.008347	 0.026116	 0.002904	 140	 140	 140	 0	 0	 0	-30	 30;
	 164	 126	 0.001488	 0.004628	 0.00053	 140	 140	 140	 0	 0	 1	-30	 30;
	 124	 115	 0.001983	 0.006116	 0.000726	 140	 140	 140	 0	 0	 1	-30	 30;
	 161	 22	 0.00438	 0.014545	 0.00144	 140	 140	 140	 0	 0	 1	-30	 30;
	 51	 161	 0.000661	 0.001983	 0.000232	 140	 140	 140	 0	 0	 1	-30	 30;
	 159	 161	 0.000165	 0.000413	 5.1e-05	 140	 140	 140	 0	 0	 1	-30	 30;
	 84	 12	 0.004628	 0.014545	 0.001592	 140	 140	 140	 0	 0	 1	-30	 30;
	 35	 12	 0.000826	 0.002727	 0.000257	 140	 140	 140	 0	 0	 1	-30	 30;
	 106	 35	 0.002562	 0.008595	 0.00082	 140	 140	 140	 0	 0	 1	-30	 30;
	 34	 35	 0.000992	 0.003058	 0.000358	 140	 140	 140	 0	 0	 1	-30	 30;
	 94	 172	 0.004959	 0.015289	 0.001769	 140	 140	 140	 0	 0	 1	-30	 30;
	 71	 25	 0.00719	 0.017851	 0.002134	 120	 120	 120	 0	 0	 1	-30	 30;
	 115	 108	 0.008017	 0.027769	 0.002802	 140	 140	 140	 0	 0	 1	-30	 30;
	 109	 95	 0.007686	 0.027273	 0.003178	 140	 140	 140	 0	 0	 1	-30	 30;
	 112	 76	 0.004876	 0.009256	 0.001801	 120	 120	 120	 0	 0	 1	-30	 30;
	 80	 99	 0.001983	 0.006364	 0.000668	 114	 114	 114	 0	 0	 1	-30	 30;
	 142	 96	 0.004298	 0.030083	 0.003228	 232	 232	 232	 0	 0	 1	-30	 30;
	 15	 42	 0.003471	 0.011074	 0.001159	 140	 140	 140	 0	 0	 1	-30	 30;
	 16	 43	 0.003388	 0.011074	 0.001154	 140	 140	 140	 0	 0	 1	-30	 30;
	 198	 72	 0.004711	 0.014463	 0.00165	 140	 140	 140	 0	 0	 1	-30	 30;
	 128	 24	 0.004959	 0.015124	 0.001769	 140	 140	 140	 0	 0	 1	-30	 30;
	 188	 73	 0.004132	 0.012975	 0.00144	 140	 140	 140	 0	 0	 1	-30	 30;
	 135	 16	 0.006364	 0.020165	 0.002188	 114	 114	 114	 0	 0	 1	-30	 30;
	 194	 29	 0.001901	 0.006198	 0.000651	 114	 114	 114	 0	 0	 1	-30	 30;
	 138	 194	 0.003802	 0.011983	 0.001283	 140	 140	 140	 0	 0	 1	-30	 30;
	 16	 138	 0.002645	 0.008182	 0.000946	 114	 114	 114	 0	 0	 1	-30	 30;
	 192	 194	 8.3e-05	 0.000165	 1.7e-05	 140	 140	 140	 0	 0	 1	-30	 30;
	 138	 137	 0.00124	 0.003802	 0.000445	 57	 57	 57	 0	 0	 1	-30	 30;
	 99	 122	 0.002397	 0.007438	 0.000859	 114	 114	 114	 0	 0	 1	-30	 30;
	 183	 18	 0.004132	 0.013306	 0.001411	 114	 114	 114	 0	 0	 1	-30	 30;
	 23	 183	 0.007107	 0.023058	 0.002403	 140	 140	 140	 0	 0	 1	-30	 30;
	 182	 183	 0.000744	 0.002397	 0.000264	 114	 114	 114	 0	 0	 1	-30	 30;
	 190	 33	 0.000909	 0.00281	 0.000319	 114	 114	 114	 0	 0	 1	-30	 30;
	 74	 33	 0.003141	 0.013306	 0.001379	 162	 162	 162	 0	 0	 1	-30	 30;
	 13	 74	 0.000413	 0.00124	 0.000131	 140	 140	 140	 0	 0	 1	-30	 30;
	 14	 75	 0.000413	 0.001322	 0.000135	 140	 140	 140	 0	 0	 1	-30	 30;
	 67	 32	 0.000661	 0.002562	 0.0003	 114	 114	 114	 0	 0	 1	-30	 30;
	 66	 47	 0.003471	 0.010661	 0.001246	 140	 140	 140	 0	 0	 1	-30	 30;
	 166	 66	 0.003636	 0.013388	 0.001203	 140	 140	 140	 0	 0	 1	-30	 30;
	 64	 66	 0	 0.000826	 7e-06	 140	 140	 140	 0	 0	 1	-30	 30;
	 176	 75	 0.004463	 0.012893	 0.001735	 140	 140	 140	 0	 0	 1	-30	 30;
	 36	 32	 0.000661	 0.002149	 0.000215	 114	 114	 114	 0	 0	 1	-30	 30;
	 37	 33	 0.000661	 0.002066	 0.00021	 114	 114	 114	 0	 0	 1	-30	 30;
	 74	 29	 0.003554	 0.011405	 0.001183	 114	 114	 114	 0	 0	 1	-30	 30;
	 90	 186	 0.001488	 0.004959	 0.000469	 114	 114	 114	 0	 0	 1	-30	 30;
	 197	 104	 0.000992	 0.003141	 0.000365	 114	 114	 114	 0	 0	 1	-30	 30;
	 15	 102	 0.004876	 0.01719	 0.001917	 114	 114	 114	 0	 0	 1	-30	 30;
	 183	 81	 0.009091	 0.029752	 0.003151	 114	 114	 114	 0	 0	 0	-30	 30;
	 182	 183	 8.3e-05	 0.000826	 0.000169	 114	 114	 114	 0	 0	 0	-30	 30;
	 2	 1	 2.1e-05	 0.000207	 0	 876	 876	 876	 0	 0	 1	-30	 30;
	 4	 3	 2.1e-05	 0.000207	 0	 876	 876	 876	 0	 0	 1	-30	 30;
	 6	 5	 2.1e-05	 0.000207	 0	 876	 876	 876	 0	 0	 1	-30	 30;
	 10	 9	 8.3e-05	 0.000826	 0	 438	 438	 438	 0	 0	 1	-30	 30;
	 12	 11	 8.3e-05	 0.000826	 0	 438	 438	 438	 0	 0	 0	-30	 30;
	 16	 15	 8.3e-05	 0.000826	 0	 438	 438	 438	 0	 0	 0	-30	 30;
	 18	 17	 8.3e-05	 0.000826	 0	 438	 438	 438	 0	 0	 1	-30	 30;
	 20	 19	 8.3e-05	 0.000826	 0	 438	 438	 438	 0	 0	 1	-30	 30;
	 22	 21	 8.3e-05	 0.000826	 0	 438	 438	 438	 0	 0	 1	-30	 30;
	 24	 23	 8.3e-05	 0.000826	 0	 438	 438	 438	 0	 0	 0	-30	 30;
	 29	 28	 8.3e-05	 0.000826	 0	 438	 438	 438	 0	 0	 0	-30	 30;
	 31	 30	 8.3e-05	 0.000826	 0	 438	 438	 438	 0	 0	 1	-30	 30;
	 33	 32	 8.3e-05	 0.000826	 0	 438	 438	 438	 0	 0	 1	-30	 30;
	 40	 39	 8.3e-05	 0.000826	 0	 438	 438	 438	 0	 0	 1	-30	 30;
	 43	 42	 0	 0.0001	 0	 438	 438	 438	 0	 0	 0	-30	 30;
	 47	 46	 8.3e-05	 0.000826	 0	 438	 438	 438	 0	 0	 1	-30	 30;
	 49	 48	 8.3e-05	 0.000826	 0	 438	 438	 438	 0	 0	 1	-30	 30;
	 51	 50	 8.3e-05	 0.000826	 0	 438	 438	 438	 0	 0	 1	-30	 30;
	 54	 53	 8.3e-05	 0.000826	 0	 438	 438	 438	 0	 0	 1	-30	 30;
	 56	 55	 8.3e-05	 0.000826	 0	 438	 438	 438	 0	 0	 1	-30	 30;
	 59	 58	 8.3e-05	 0.000826	 0	 438	 438	 438	 0	 0	 0	-30	 30;
	 63	 62	 8.3e-05	 0.000826	 0	 438	 438	 438	 0	 0	 0	-30	 30;
	 71	 70	 8.3e-05	 0.000826	 0	 438	 438	 438	 0	 0	 0	-30	 30;
	 73	 72	 8.3e-05	 0.000826	 0	 438	 438	 438	 0	 0	 1	-30	 30;
	 75	 74	 8.3e-05	 0.000826	 0	 438	 438	 438	 0	 0	 0	-30	 30;
	 77	 76	 8.3e-05	 0.000826	 0	 438	 438	 438	 0	 0	 1	-30	 30;
	 81	 80	 8.3e-05	 0.000826	 0	 438	 438	 438	 0	 0	 1	-30	 30;
	 83	 82	 8.3e-05	 0.000826	 0	 438	 438	 438	 0	 0	 1	-30	 30;
	 85	 84	 8.3e-05	 0.000826	 0	 438	 438	 438	 0	 0	 1	-30	 30;
	 87	 86	 0	 0.0001	 0	 438	 438	 438	 0	 0	 0	-30	 30;
	 94	 93	 8.3e-05	 0.000826	 0	 438	 438	 438	 0	 0	 0	-30	 30;
	 95	 94	 8.3e-05	 0.000826	 0	 438	 438	 438	 0	 0	 0	-30	 30;
	 93	 95	 8.3e-05	 0.000826	 0	 438	 438	 438	 0	 0	 0	-30	 30;
	 98	 97	 8.3e-05	 0.000826	 0	 438	 438	 438	 0	 0	 1	-30	 30;
	 100	 99	 8.3e-05	 0.000826	 0	 438	 438	 438	 0	 0	 1	-30	 30;
	 102	 101	 8.3e-05	 0.000826	 0	 438	 438	 438	 0	 0	 1	-30	 30;
...
];

mpc_regionR1.gencost = [
%	2           startup     shutdown    n           c(n-1)...c0 
	 2	 0	 0	 3	 0	 94.09	 0;
	 2	 0	 0	 3	 0	 94.09	 0;
	 2	 0	 0	 3	 0	 0	 0;
	 2	 0	 0	 3	 0	 0	 0;
	 2	 0	 0	 3	 0	 0	 0;
	 2	 0	 0	 3	 0	 0	 0;
	 2	 0	 0	 3	 0	 0	 0;
	 2	 0	 0	 3	 0	 0	 0;
	 2	 0	 0	 3	 0	 0	 0;
	 2	 0	 0	 3	 0	 0	 0;
	 2	 0	 0	 3	 0	 0	 0;
	 2	 0	 0	 3	 0	 0	 0;
	 2	 0	 0	 3	 0	 0	 0;
	 2	 0	 0	 3	 0	 0	 0;
	 2	 0	 0	 3	 0	 0	 0;
	 2	 0	 0	 3	 0	 0	 0;
	 2	 0	 0	 3	 0	 0	 0;
	 2	 0	 0	 3	 0	 94.09	 0;
	 2	 0	 0	 3	 0	 94.09	 0;
	 2	 0	 0	 3	 0	 94.09	 0;
	 2	 0	 0	 3	 0	 94.09	 0;
	 2	 0	 0	 3	 0	 95.31	 0;
	 2	 0	 0	 3	 0	 0	 0;
	 2	 0	 0	 3	 0	 0	 0;
];


% -------------------- mpc_regionR2 --------------------

mpc_regionR2.version = '2';
mpc_regionR2.baseMVA = 100.0000;
mpc_regionR2.bus = [
%	bus_i       type        Pd          Qd          Gs          Bs          area        Vm          Va          baseKV      zone        Vmax        Vmin        
	 1	 1	 0	 0	 0	 0	 1	 1.03	 0	 220	 3	 1.11	 0.95;
	 2	 1	 0	 0	 0	 0	 1	 1.03	 0	 220	 3	 1.11	 0.95;
	 3	 1	 0	 0	 0	 0	 1	 1.03	 0	 220	 3	 1.11	 0.95;
	 4	 1	 0	 0	 0	 0	 1	 1.03	 0	 220	 3	 1.11	 0.95;
	 5	 2	 14.17	 40	 0	 0	 1	 1.03	 0	 220	 3	 1.11	 0.95;
	 6	 2	 14.17	 40	 0	 0	 1	 1.03	 0	 220	 3	 1.11	 0.95;
	 7	 1	 0	 0	 0	 0	 1	 1.03	 0	 220	 3	 1.11	 0.95;
	 8	 1	 0	 0	 0	 0	 1	 1.03	 0	 220	 3	 1.11	 0.95;
	 9	 2	 18.57	 21.86	 0	 0	 1	 1.03	 0	 220	 3	 1.11	 0.95;
	 10	 2	 28.82	 34.29	 0	 0	 1	 1.03	 0	 220	 3	 1.11	 0.95;
	 11	 1	 0	 0	 0	 0	 1	 1.035	 0	 110	 3	 1.12	 0.95;
	 12	 1	 0	 0	 0	 0	 1	 1.035	 0	 110	 3	 1.12	 0.95;
	 13	 2	 9.6	 2.79	 0	 0	 1	 1.035	 0	 110	 3	 1.12	 0.95;
	 14	 1	 8.41	 3.73	 0	 0	 1	 1.035	 0	 110	 3	 1.12	 0.95;
	 15	 1	 19.3	 4.94	 0	 0	 1	 1.035	 0	 110	 3	 1.12	 0.95;
	 16	 1	 0	 0	 0	 0	 1	 1.035	 0	 110	 3	 1.12	 0.95;
	 17	 1	 0	 0	 0	 0	 1	 1.035	 0	 110	 3	 1.12	 0.95;
	 18	 1	 16.35	 6.81	 0	 0	 1	 1.035	 0	 110	 3	 1.12	 0.95;
	 19	 1	 2.97	 0	 0	 0	 1	 1.035	 0	 110	 3	 1.12	 0.95;
	 20	 1	 7.46	 1.96	 0	 0	 1	 1.035	 0	 110	 3	 1.12	 0.95;
	 21	 1	 0	 0	 0	 0	 1	 1.035	 0	 110	 3	 1.12	 0.95;
	 22	 1	 0	 0	 0	 0	 1	 1.035	 0	 110	 3	 1.12	 0.95;
	 23	 1	 0	 0	 0	 0	 1	 1.035	 0	 110	 3	 1.12	 0.95;
	 24	 1	 0.96	 0.56	 0	 0	 1	 1.035	 0	 110	 3	 1.12	 0.95;
	 25	 1	 0	 0	 0	 0	 1	 1.035	 0	 110	 3	 1.12	 0.95;
	 26	 1	 13.22	 2.61	 0	 0	 1	 1.035	 0	 110	 3	 1.12	 0.95;
	 27	 1	 6.61	 1.31	 0	 0	 1	 1.035	 0	 110	 3	 1.12	 0.95;
	 28	 1	 0	 0	 0	 0	 1	 1.035	 0	 110	 3	 1.12	 0.95;
	 29	 1	 4.46	 1.32	 0	 0	 1	 1.035	 0	 110	 3	 1.12	 0.95;
	 30	 1	 0	 0	 0	 0	 1	 1.035	 0	 110	 3	 1.12	 0.95;
	 31	 1	 3.61	 2.24	 0	 0	 1	 1.035	 0	 110	 3	 1.12	 0.95;
	 32	 1	 0	 0	 0	 0	 1	 1.035	 0	 110	 3	 1.12	 0.95;
	 33	 1	 22.84	 10.26	 0	 0	 1	 1.035	 0	 110	 3	 1.12	 0.95;
	 34	 2	 0	-0.01	 0	 0	 1	 1.035	 0	 110	 3	 1.12	 0.95;
	 35	 2	 19.82	 10.19	 0	 0	 1	 1.035	 0	 110	 3	 1.12	 0.95;
	 36	 2	 0	 0	 0	 0	 1	 1.035	 0	 110	 3	 1.12	 0.95;
	 37	 1	 5.89	 1.58	 0	 0	 1	 1.035	 0	 110	 3	 1.12	 0.95;
	 38	 1	 0	 0	 0	 0	 1	 1.035	 0	 110	 3	 1.12	 0.95;
	 39	 1	 0.24	 0	 0	 0	 1	 1.035	 0	 110	 3	 1.12	 0.95;
	 40	 1	 0	 0	 0	 0	 1	 1.035	 0	 110	 3	 1.12	 0.95;
	 41	 1	 0.6	 0.47	 0	 0	 1	 1.035	 0	 110	 3	 1.12	 0.95;
	 42	 1	 0	 0	 0	 0	 1	 1.035	 0	 110	 3	 1.12	 0.95;
	 43	 1	 0	 0	 0	 0	 1	 1.035	 0	 110	 3	 1.12	 0.95;
	 44	 1	 5.53	 0.84	 0	 0	 1	 1.035	 0	 110	 3	 1.12	 0.95;
	 45	 1	 6.61	 1.03	 0	 0	 1	 1.035	 0	 110	 3	 1.12	 0.95;
	 46	 1	 4.81	 1.86	 0	 0	 1	 1.035	 0	 110	 3	 1.12	 0.95;
	 47	 1	 0	 0	 0	 0	 1	 1.035	 0	 110	 3	 1.12	 0.95;
	 48	 1	 0	 0	 0	 0	 1	 1.035	 0	 110	 3	 1.12	 0.95;
	 49	 1	 0	 0	 0	 0	 1	 1.035	 0	 110	 3	 1.12	 0.95;
	 50	 1	 0	 0	 0	 0	 1	 1.035	 0	 110	 3	 1.12	 0.95;
	 51	 1	 0	 0	 0	 0	 1	 1.035	 0	 110	 3	 1.12	 0.95;
	 52	 1	 0	 0	 0	 0	 1	 1.035	 0	 110	 3	 1.12	 0.95;
	 53	 1	 17.45	 2.66	 0	 0	 1	 1.035	 0	 110	 3	 1.12	 0.95;
	 54	 1	 0	 0	 0	 0	 1	 1.035	 0	 110	 3	 1.12	 0.95;
	 55	 1	 0	 0	 0	 0	 1	 1.035	 0	 110	 3	 1.12	 0.95;
	 56	 2	 2.64	 1.86	 0	 0	 1	 1.035	 0	 110	 3	 1.12	 0.95;
	 57	 2	 7.16	 9.64	 0	 0	 1	 1.035	 0	 110	 3	 1.12	 0.95;
	 58	 2	 0	 0	 0	 0	 1	 1.035	 0	 110	 3	 1.12	 0.95;
	 59	 1	 18.73	 1.74	 0	 0	 1	 1.035	 0	 110	 3	 1.12	 0.95;
	 60	 1	 0	 0	 0	 0	 1	 1.035	 0	 110	 3	 1.12	 0.95;
	 61	 1	 32.45	 9.32	 0	 0	 1	 1.035	 0	 110	 3	 1.12	 0.95;
	 62	 1	 0	 0	 0	 0	 1	 1.035	 0	 110	 3	 1.12	 0.95;
	 63	 1	 104.56	 29.84	 0	 0	 1	 1.035	 0	 110	 3	 1.12	 0.95;
	 64	 1	 0	 0	 0	 0	 1	 1.035	 0	 110	 3	 1.12	 0.95;
	 65	 1	 0	 0	 0	 0	 1	 1.035	 0	 110	 3	 1.12	 0.95;
	 66	 1	 0	 0	 0	 0	 1	 1.035	 0	 110	 3	 1.12	 0.95;
	 67	 1	 3.73	 1.12	 0	 0	 1	 1.035	 0	 110	 3	 1.12	 0.95;
	 68	 1	 0.36	 0.09	 0	 0	 1	 1.035	 0	 110	 3	 1.12	 0.95;
	 69	 1	 15.62	 6.53	 0	 0	 1	 1.035	 0	 110	 3	 1.12	 0.95;
	 70	 1	 13.22	 3.73	 0	 0	 1	 1.035	 0	 110	 3	 1.12	 0.95;
	 71	 1	 18.03	 12.78	 0	 0	 1	 1.035	 0	 110	 3	 1.12	 0.95;
	 72	 1	 0	 0	 0	 0	 1	 1.035	 0	 110	 3	 1.12	 0.95;
	 73	 1	 0	 0	 0	 0	 1	 1.035	 0	 110	 3	 1.12	 0.95;
	 74	 1	 4.81	 1.07	 0	 0	 1	 1.035	 0	 110	 3	 1.12	 0.95;
	 75	 1	 0.6	 0.14	 0	 0	 1	 1.035	 0	 110	 3	 1.12	 0.95;
	 76	 1	 0	 0	 0	 0	 1	 1.035	 0	 110	 3	 1.12	 0.95;
	 77	 1	 0	 0	 0	 0	 1	 1.035	 0	 110	 3	 1.12	 0.95;
	 78	 1	 1.68	 0.47	 0	 0	 1	 1.035	 0	 110	 3	 1.12	 0.95;
	 79	 1	 6.61	 1.03	 0	 0	 1	 1.035	 0	 110	 3	 1.12	 0.95;
	 80	 1	 0	 0	 0	 0	 1	 1.035	 0	 110	 3	 1.12	 0.95;
	 81	 1	 0	 0	 0	 0	 1	 1.035	 0	 110	 3	 1.12	 0.95;
	 82	 1	 9.64	 0.48	 0	 0	 1	 1.035	 0	 110	 3	 1.12	 0.95;
	 83	 1	 0	 0	 0	 0	 1	 1.035	 0	 110	 3	 1.12	 0.95;
	 84	 1	 3.48	 0.84	 0	 0	 1	 1.035	 0	 110	 3	 1.12	 0.95;
	 85	 1	 3.8	 0	 0	 0	 1	 1.035	 0	 110	 3	 1.12	 0.95;
	 86	 1	 11.78	 5.5	 0	 0	 1	 1.035	 0	 110	 3	 1.12	 0.95;
	 87	 1	 0	 0	 0	 0	 1	 1.035	 0	 110	 3	 1.12	 0.95;
	 88	 2	 20.44	 5.19	 0	 0	 1	 1.035	 0	 110	 3	 1.12	 0.95;
	 89	 1	 0	 0	 0	 0	 1	 1.035	 0	 110	 3	 1.12	 0.95;
	 90	 1	 6.13	 9.7	 0	 0	 1	 1.035	 0	 110	 3	 1.12	 0.95;
	 91	 1	 8.53	 4.94	 0	 0	 1	 1.035	 0	 110	 3	 1.12	 0.95;
	 92	 1	 12.14	 3.82	 0	 0	 1	 1.035	 0	 110	 3	 1.12	 0.95;
	 93	 1	 0	 0	 0	 0	 1	 1.035	 0	 110	 3	 1.12	 0.95;
	 94	 1	 7.21	 1.49	 0	 0	 1	 1.035	 0	 110	 3	 1.12	 0.95;
	 95	 1	 6.25	 1.49	 0	 0	 1	 1.035	 0	 110	 3	 1.12	 0.95;
	 96	 1	 1.2	 0.19	 0	 0	 1	 1.035	 0	 110	 3	 1.12	 0.95;
	 97	 1	 0	 0	 0	 0	 1	 1.035	 0	 110	 3	 1.12	 0.95;
	 98	 1	 0	 0	 0	 0	 1	 1.035	 0	 110	 3	 1.12	 0.95;
	 99	 1	 0	 0	 0	 0	 1	 1.035	 0	 110	 3	 1.12	 0.95;
	 100	 1	 5.43	 1.2	 0	 0	 1	 1.035	 0	 110	 3	 1.12	 0.95;
	 101	 1	 4.81	 0.83	 0	 0	 1	 1.035	 0	 110	 3	 1.12	 0.95;
	 102	 1	 0	 0	 0	 0	 1	 1.035	 0	 110	 3	 1.12	 0.95;
	 103	 2	 30.62	 48.53	 0	 0	 1	 1.035	 0	 110	 3	 1.12	 0.95;
	 104	 1	 7.83	 1.76	 0	 0	 1	 1.035	 0	 110	 3	 1.12	 0.95;
	 105	 1	 4.81	 1.21	 0	 0	 1	 1.035	 0	 110	 3	 1.12	 0.95;
	 106	 1	 0	 0	 0	 0	 1	 1.035	 0	 110	 3	 1.12	 0.95;
	 107	 1	 0	 0	 0	 0	 1	 1.035	 0	 110	 3	 1.12	 0.95;
	 108	 2	 10.02	 0.26	 0	 0	 1	 1.035	 0	 110	 3	 1.12	 0.95;
	 109	 1	 0	 0	 0	 0	 1	 1.035	 0	 110	 3	 1.12	 0.95;
	 110	 2	 2.39	 0.46	 0	 0	 1	 1.035	 0	 110	 3	 1.12	 0.95;
	 111	 2	 20.42	 8.85	 0	 0	 1	 1.035	 0	 110	 3	 1.12	 0.95;
	 112	 2	 36.05	 13.98	 0	 0	 1	 1.035	 0	 110	 3	 1.12	 0.95;
	 113	 2	 7.11	-0.01	 0	 0	 1	 1.035	 0	 110	 3	 1.12	 0.95;
	 114	 1	 0	 0	 0	 0	 1	 1.035	 0	 110	 3	 1.12	 0.95;
	 115	 1	 3.13	 0.68	 0	 0	 1	 1.035	 0	 110	 3	 1.12	 0.95;
	 116	 1	 1.8	 0.28	 0	 0	 1	 1.035	 0	 110	 3	 1.12	 0.95;
	 117	 1	 0	 0	 0	 0	 1	 1.035	 0	 110	 3	 1.12	 0.95;
	 118	 1	 0	 0	 0	 0	 1	 1.035	 0	 110	 3	 1.12	 0.95;
	 119	 1	 13.3	 4.84	 0	 0	 1	 1.035	 0	 110	 3	 1.12	 0.95;
	 120	 1	 12.08	 4.07	 0	 0	 1	 1.035	 0	 110	 3	 1.12	 0.95;
	 121	 1	 0	 0	 0	 0	 1	 1.035	 0	 110	 3	 1.12	 0.95;
	 122	 1	 0	 0	 0	 0	 1	 1.035	 0	 110	 3	 1.12	 0.95;
	 123	 1	 8.43	 2.61	 0	 0	 1	 1.035	 0	 110	 3	 1.12	 0.95;
	 124	 1	 6.03	 2.21	 0	 0	 1	 1.035	 0	 110	 3	 1.12	 0.95;
	 125	 1	 4.81	 1.12	 0	 0	 1	 1.035	 0	 110	 3	 1.12	 0.95;
	 126	 1	 0	 0	 0	 0	 1	 1.035	 0	 110	 3	 1.12	 0.95;
	 127	 1	 13.97	 2.86	 0	 0	 1	 1.035	 0	 110	 3	 1.12	 0.95;
	 128	 1	 0	 0	 0	 0	 1	 1.035	 0	 110	 3	 1.12	 0.95;
	 129	 1	 9.42	 1.08	 0	 0	 1	 1.035	 0	 110	 3	 1.12	 0.95;
	 130	 1	 0	 0	 0	 0	 1	 1.035	 0	 110	 3	 1.12	 0.95;
	 131	 1	 3.97	 0.93	 0	 0	 1	 1.035	 0	 110	 3	 1.12	 0.95;
	 132	 1	 8.77	 1.86	 0	 0	 1	 1.035	 0	 110	 3	 1.12	 0.95;
	 133	 1	 12.04	 0.97	 0	 0	 1	 1.035	 0	 110	 3	 1.12	 0.95;
	 134	 1	 0	 0	 0	 0	 1	 1.035	 0	 110	 3	 1.12	 0.95;
	 135	 1	 0	 0	 0	 0	 1	 1.035	 0	 110	 3	 1.12	 0.95;
	 136	 1	 0	 0	 0	 0	 1	 1.035	 0	 110	 3	 1.12	 0.95;
	 137	 1	 0	 0	 0	 0	 1	 1.035	 0	 110	 3	 1.12	 0.95;
	 138	 1	 0	 0	 0	 0	 1	 1.035	 0	 110	 3	 1.12	 0.95;
	 139	 1	 0	 0	 0	 0	 1	 1.035	 0	 110	 3	 1.12	 0.95;
	 140	 1	 0	 0	 0	 0	 1	 1.035	 0	 110	 3	 1.12	 0.95;
	 141	 1	 1.2	 0.47	 0	 0	 1	 1.035	 0	 110	 3	 1.12	 0.95;
	 142	 1	 0	 0	 0	 0	 1	 1.035	 0	 110	 3	 1.12	 0.95;
	 143	 2	 18.02	 10.25	 0	 0	 1	 1.035	 0	 110	 3	 1.12	 0.95;
	 144	 2	 6	 3.72	 0	 0	 1	 1.035	 0	 110	 3	 1.12	 0.95;
	 145	 1	 20.51	 6.04	 0	 0	 1	 1.035	 0	 110	 3	 1.12	 0.95;
	 146	 1	 0	 0	 0	 0	 1	 1.035	 0	 110	 3	 1.12	 0.95;
	 147	 1	 0	 0	 0	 0	 1	 1.035	 0	 110	 3	 1.12	 0.95;
	 148	 1	 5.41	 0.93	 0	 0	 1	 1.035	 0	 110	 3	 1.12	 0.95;
	 149	 1	 6.38	 1.69	 0	 0	 1	 1.035	 0	 110	 3	 1.12	 0.95;
	 150	 1	 0	 0	 0	 0	 1	 1.035	 0	 110	 3	 1.12	 0.95;
	 151	 1	 4.94	 0.83	 0	 0	 1	 1.035	 0	 110	 3	 1.12	 0.95;
	 152	 1	 12.17	 2.62	 0	 0	 1	 1.035	 0	 110	 3	 1.12	 0.95;
	 153	 1	 0	 0	 0	 0	 1	 1.035	 0	 110	 3	 1.12	 0.95;
	 154	 1	 1.92	 0.37	 0	 0	 1	 1.035	 0	 110	 3	 1.12	 0.95;
	 155	 1	 0	 0	 0	 0	 1	 1.035	 0	 110	 3	 1.12	 0.95;
	 156	 1	 19.3	 9.44	 0	 0	 1	 1.035	 0	 110	 3	 1.12	 0.95;
	 157	 1	 13.23	 3.02	 0	 0	 1	 1.035	 0	 110	 3	 1.12	 0.95;
	 158	 1	 0	 0	 0	 0	 1	 1.035	 0	 110	 3	 1.12	 0.95;
	 159	 1	 0	 0	 0	 0	 1	 1.035	 0	 110	 3	 1.12	 0.95;
	 160	 1	 2.04	 0.84	 0	 0	 1	 1.035	 0	 110	 3	 1.12	 0.95;
	 161	 1	 0	 0	 0	 0	 1	 1.035	 0	 110	 3	 1.12	 0.95;
	 162	 1	 0	 0	 0	 0	 1	 1.035	 0	 110	 3	 1.12	 0.95;
	 163	 1	 12.51	 1.26	 0	 0	 1	 1.035	 0	 110	 3	 1.12	 0.95;
	 164	 1	 7.21	 1.86	 0	 0	 1	 1.035	 0	 110	 3	 1.12	 0.95;
	 165	 1	 0	 0	 0	 0	 1	 1.035	 0	 110	 3	 1.12	 0.95;
	 166	 1	 3.4	 0.93	 0	 0	 1	 1.035	 0	 110	 3	 1.12	 0.95;
	 167	 1	 3.61	 0.93	 0	 0	 1	 1.035	 0	 110	 3	 1.12	 0.95;
	 168	 1	 2.37	 0	 0	 0	 1	 1.035	 0	 110	 3	 1.12	 0.95;
	 169	 1	 10.82	 0.93	 0	 0	 1	 1.035	 0	 110	 3	 1.12	 0.95;
	 170	 1	 0	 0	 0	 0	 1	 1.035	 0	 110	 3	 1.12	 0.95;
	 171	 2	 12.61	 1.48	 0	 0	 1	 1.035	 0	 110	 3	 1.12	 0.95;
	 172	 1	 8.77	 1.96	 0	 0	 1	 1.035	 0	 110	 3	 1.12	 0.95;
	 173	 1	 0	 0	 0	 0	 1	 1.035	 0	 110	 3	 1.12	 0.95;
	 174	 1	 0	 0	 0	 0	 1	 1.035	 0	 110	 3	 1.12	 0.95;
	 175	 1	 3.73	 0.93	 0	 0	 1	 1.035	 0	 110	 3	 1.12	 0.95;
	 176	 2	 17.97	 30.86	 0	 0	 1	 1.035	 0	 110	 3	 1.12	 0.95;
	 177	 1	 0	 0	 0	 0	 1	 1.035	 0	 110	 3	 1.12	 0.95;
	 178	 2	 13.16	 29	 0	 0	 1	 1.035	 0	 110	 3	 1.12	 0.95;
	 179	 1	 10.41	 2.84	 0	 0	 1	 1.035	 0	 110	 3	 1.12	 0.95;
	 180	 1	 18.08	 3.09	 0	 0	 1	 1.035	 0	 110	 3	 1.12	 0.95;
	 181	 1	 15.07	 3.38	 0	 0	 1	 1.035	 0	 110	 3	 1.12	 0.95;
	 182	 1	 0	 0	 0	 0	 1	 1.035	 0	 110	 3	 1.12	 0.95;
	 183	 1	 0	 0	 0	 0	 1	 1.035	 0	 110	 3	 1.12	 0.95;
	 184	 1	 2.28	 1.21	 0	 0	 1	 1.035	 0	 110	 3	 1.12	 0.95;
	 185	 1	 6.49	 2.61	 0	 0	 1	 1.035	 0	 110	 3	 1.12	 0.95;
	 186	 2	 18.62	 0.92	 0	 0	 1	 1.035	 0	 110	 3	 1.12	 0.95;
	 187	 2	 17.8	-1.88	 0	 0	 1	 1.035	 0	 110	 3	 1.12	 0.95;
	 188	 1	 0	 0	 0	 0	 1	 1.035	 0	 110	 3	 1.12	 0.95;
	 189	 1	 0	 0	 0	 0	 1	 1.035	 0	 110	 3	 1.12	 0.95;
	 190	 1	 4.81	 0.63	 0	 0	 1	 1.035	 0	 110	 3	 1.12	 0.95;
	 191	 1	 4.21	 0.14	 0	 0	 1	 1.035	 0	 110	 3	 1.12	 0.95;
	 192	 1	 0	 0	 0	 0	 1	 1.035	 0	 110	 3	 1.12	 0.95;
	 193	 1	 33.41	 12	 0	 0	 2	 1.035	 0	 110	 0	 1.12	 0.95;
	 194	 1	 33.41	 12	 0	 0	 2	 1.035	 0	 110	 0	 1.12	 0.95;
	 195	 1	 25.31	 10	 0	 0	 2	 1.035	 0	 110	 0	 1.12	 0.95;
	 196	 1	 65.8	 26	 0	 0	 2	 1.035	 0	 110	 0	 1.12	 0.95;
];

mpc_regionR2.gen = [
%	bus         Pg          Qg          Qmax        Qmin        Vg          mBase       status      Pmax        Pmin        Pc1         Pc2         Qc1min      Qc1max      Qc2min      Qc2max      ramp_agc    ramp_10     ramp_30     ramp_q      apf         
	 5	 160.5	 0	 232.8	-232.8	 1.03	 251.8	 1	 254	 67;
	 6	 162.5	 0	 219.6	-219.6	 1.03	 251.8	 1	 258	 67;
	 9	 160.5	 0	 225.6	-225.6	 1.03	 242.9	 1	 241	 80;
	 10	 163	 0	 128	-128	 1.03	 240.2	 1	 256	 70;
	 10	 0	 0	 94	-94	 1.03	 229.4	 0	 187	 80;
	 13	 61.25	 0	 60	-60	 1.035	 14.6	 1	 119	 3.5;
	 34	 25.37775	 0	 22	-22	 1.035	 13.9	 1	 44	 6.7555;
	 35	 17.74975	 0	 14	-14	 1.035	 17.9	 1	 28	 7.4995;
	 56	 0	 0	 37.5	-0	 1.035	 62.5	 0	 0	 0;
	 57	 0	 0	 37.5	-0	 1.035	 62.5	 0	 0	 0;
	 57	 91	 0	 79	-79	 1.035	 62.5	 1	 157	 25;
	 58	 0	 0	 37.5	-0	 1.035	 62.5	 0	 0	 0;
	 88	 17.125	 0	 16	-16	 1.035	 5.7	 1	 32	 2.25;
	 103	 250	 0	 229	-229	 1.035	 151.2	 1	 458	 42;
	 103	 73.5	 16	 85	-53	 1.035	 151.2	 1	 105	 42;
	 108	 31	 0	 48	-48	 1.035	 4.5	 1	 61	 1;
	 110	 33.24975	 0	 30	-30	 1.035	 20	 1	 59	 7.4995;
	 111	 42	 0	 41	-41	 1.035	 4.1	 1	 82	 2;
	 112	 64.99975	 0	 62	-62	 1.035	 30.8	 1	 123	 6.9995;
	 113	 58.49975	 0	 55	-55	 1.035	 19.9	 1	 110	 6.9995;
	 143	 11.8	 0	 21.6	-21.6	 1.035	 3.3	 1	 22	 1.6;
	 144	 24.3	 0	 25.2	-25.2	 1.035	 3.3	 1	 47	 1.6;
	 171	 15.175	 0	 15	-15	 1.035	 2.9	 1	 29	 1.35;
	 176	 0	 0	 83	-83	 1.035	 239.8	 0	 165	 80;
	 176	 137	 5.5	 113	-102	 1.035	 251.8	 1	 204	 70;
	 178	 127.5	 0	 88	-88	 1.035	 237.5	 1	 175	 80;
	 186	 35.25	 0	 32	-32	 1.035	 32.8	 1	 63	 7.5;
	 187	 19.25	 0	 16	-16	 1.035	 32.8	 1	 31	 7.5;
	 36	 17.4835	 0	 16	-16	 1.035	 6	 1	 32	 2.967;
];

mpc_regionR2.branch = [
%	fbus        tbus        r           x           b           rateA       rateB       rateC       ratio       angle       status      angmin      angmax      
	 4	 9	 0.004876	 0.033616	 0.059609	 446	 446	 446	 0	 0	 1	-30	 30;
	 10	 1	 0.00593	 0.04093	 0.072145	 446	 446	 446	 0	 0	 1	-30	 30;
	 9	 5	 0.003141	 0.021591	 0.038391	 446	 446	 446	 0	 0	 1	-30	 30;
	 10	 7	 0.004545	 0.03157	 0.055312	 373	 373	 373	 0	 0	 1	-30	 30;
	 5	 2	 0.001446	 0.009917	 0.017598	 373	 373	 373	 0	 0	 1	-30	 30;
	 57	 2	 0.00145	 0.0655	-0.002517	 160	 160	 160	 1.0007	 0	 1	-30	 30;
	 56	 3	 0.00145	 0.07045	-0.002517	 160	 160	 160	 1.0015	 0	 1	-30	 30;
	 103	 6	 0.001651	 0.068599	-0.002904	 160	 160	 160	 0.9899	 0	 1	-30	 30;
	 110	 7	 0.00145	 0.06756	-0.003485	 160	 160	 160	 1.0202	 0	 1	-30	 30;
	 178	 9	 0.00145	 0.068599	-0.002323	 160	 160	 160	 1.0013	 0	 1	-30	 30;
	 177	 10	 0.001651	 0.06818	-0.002904	 160	 160	 160	 1.01	 0	 1	-30	 30;
	 168	 98	 0.031736	 0.094215	 0.008361	 120	 120	 120	 0	 0	 1	-30	 30;
	 96	 98	 0.000496	 0.001157	 0.000135	 29	 29	 29	 0	 0	 1	-30	 30;
	 169	 99	 0.031736	 0.094215	 0.008361	 120	 120	 120	 0	 0	 1	-30	 30;
	 97	 99	 0.000496	 0.001157	 0.000135	 29	 29	 29	 0	 0	 1	-30	 30;
	 60	 110	 0.024793	 0.083471	 0.010285	 114	 114	 114	 0	 0	 1	-30	 30;
	 128	 110	 0.034876	 0.093058	 0.01232	 120	 120	 120	 0	 0	 1	-30	 30;
	 143	 108	 0.034298	 0.10595	 0.011374	 114	 114	 114	 0	 0	 1	-30	 30;
	 183	 109	 0.001488	 0.004793	 0.000494	 114	 114	 114	 0	 0	 1	-30	 30;
	 174	 183	 0.013223	 0.031322	 0.003403	 90	 90	 90	 0	 0	 1	-30	 30;
	 179	 174	 0.01438	 0.046198	 0.004867	 114	 114	 114	 0	 0	 1	-30	 30;
	 108	 59	 0.002975	 0.013058	 0.002154	 114	 114	 114	 0	 0	 1	-30	 30;
	 28	 36	 0.013471	 0.042645	 0.004646	 140	 140	 140	 0	 0	 1	-30	 30;
	 31	 28	 8.3e-05	 0.000248	 2.4e-05	 114	 114	 114	 0	 0	 1	-30	 30;
	 26	 28	 0.004628	 0.014132	 0.00167	 114	 114	 114	 0	 0	 1	-30	 30;
	 156	 100	 0.040248	 0.070579	 0.006735	 90	 90	 90	 0	 0	 1	-30	 30;
	 30	 156	 0.019669	 0.040579	 0.003599	 90	 90	 90	 0	 0	 1	-30	 30;
	 140	 30	 0.006942	 0.018678	 0.001767	 90	 90	 90	 0	 0	 1	-30	 30;
	 151	 140	 0.000661	 0.001157	 0.000169	 90	 90	 90	 0	 0	 1	-30	 30;
	 29	 30	 0.002727	 0.003636	 0.000322	 75	 75	 75	 0	 0	 1	-30	 30;
	 139	 140	 0.000165	 0.000496	 4.4e-05	 140	 140	 140	 0	 0	 1	-30	 30;
	 170	 103	 0.012562	 0.045041	 0.004371	 114	 114	 114	 0	 0	 1	-30	 30;
	 182	 19	 0.01	 0.025124	 0.002819	 120	 120	 120	 0	 0	 1	-30	 30;
	 185	 182	 0.005868	 0.020909	 0.002072	 140	 140	 140	 0	 0	 1	-30	 30;
	 192	 182	 8.3e-05	 0.000331	 3.6e-05	 140	 140	 140	 0	 0	 1	-30	 30;
	 15	 192	 0.000331	 0.000992	 0.000121	 114	 114	 114	 0	 0	 1	-30	 30;
	 190	 192	 0.004463	 0.013636	 0.001619	 140	 140	 140	 0	 0	 1	-30	 30;
	 11	 58	 0.013967	 0.043388	 0.004898	 140	 140	 140	 0	 0	 1	-30	 30;
	 111	 145	 0.006694	 0.017273	 0.002389	 120	 120	 120	 0	 0	 1	-30	 30;
	 111	 71	 0.004545	 0.013967	 0.001283	 120	 120	 120	 0	 0	 1	-30	 30;
	 72	 19	 0.005702	 0.01719	 0.002118	 140	 140	 140	 0	 0	 1	-30	 30;
	 181	 110	 0.013636	 0.033967	 0.003707	 120	 120	 120	 0	 0	 1	-30	 30;
	 110	 142	 0.008595	 0.021405	 0.002282	 120	 120	 120	 0	 0	 1	-30	 30;
	 77	 141	 0.009256	 0.022645	 0.002543	 120	 120	 120	 0	 0	 1	-30	 30;
	 149	 77	 0.004876	 0.013471	 0.001566	 120	 120	 120	 0	 0	 1	-30	 30;
	 77	 75	 0.000909	 0.002066	 0.000237	 120	 120	 120	 0	 0	 1	-30	 30;
	 111	 70	 0.016694	 0.045207	 0.005467	 120	 120	 120	 0	 0	 1	-30	 30;
	 135	 67	 0.000826	 0.002479	 0.000269	 114	 114	 114	 0	 0	 1	-30	 30;
	 50	 135	 0.002149	 0.003884	 0.000779	 120	 120	 120	 0	 0	 1	-30	 30;
	 69	 50	 0.00595	 0.010661	 0.002222	 120	 120	 120	 0	 0	 1	-30	 30;
	 135	 133	 0	 0.000826	 7e-06	 114	 114	 114	 0	 0	 1	-30	 30;
	 50	 48	 0.002397	 0.004876	 0.000704	 90	 90	 90	 0	 0	 1	-30	 30;
	 162	 169	 0.010083	 0.031901	 0.003453	 114	 114	 114	 0	 0	 1	-30	 30;
	 105	 121	 0.002231	 0.006612	 0.000789	 114	 114	 114	 0	 0	 1	-30	 30;
	 114	 152	 0.000992	 0.003058	 0.000346	 114	 114	 114	 0	 0	 1	-30	 30;
	 157	 114	 0.005785	 0.01843	 0.001951	 114	 114	 114	 0	 0	 1	-30	 30;
	 112	 114	 0.000826	 0.002397	 0.000281	 114	 114	 114	 0	 0	 1	-30	 30;
	 176	 156	 0.011901	 0.036446	 0.004262	 114	 114	 114	 0	 0	 1	-30	 30;
	 113	 152	 0.001488	 0.004628	 0.000549	 114	 114	 114	 0	 0	 1	-30	 30;
	 177	 94	 0.012975	 0.041074	 0.004484	 140	 140	 140	 0	 0	 1	-30	 30;
	 122	 35	 0.002397	 0.007273	 0.000857	 140	 140	 140	 0	 0	 1	-30	 30;
	 177	 119	 0.003802	 0.01157	 0.00137	 140	 140	 140	 0	 0	 1	-30	 30;
	 153	 178	 0.018347	 0.056777	 0.006459	 114	 114	 114	 0	 0	 1	-30	 30;
	 51	 34	 0.000992	 0.002893	 0.000349	 140	 140	 140	 0	 0	 1	-30	 30;
	 136	 51	 0.001488	 0.004463	 0.00053	 140	 140	 140	 0	 0	 1	-30	 30;
	 178	 136	 0.004298	 0.013388	 0.001474	 140	 140	 140	 0	 0	 1	-30	 30;
	 51	 49	 0.001322	 0.003884	 0.000462	 140	 140	 140	 0	 0	 1	-30	 30;
	 134	 136	 0	 0.000826	 7e-06	 114	 114	 114	 0	 0	 1	-30	 30;
	 73	 18	 0.002727	 0.008347	 0.000973	 140	 140	 140	 0	 0	 1	-30	 30;
	 189	 73	 0.002231	 0.007603	 0.000728	 140	 140	 140	 0	 0	 1	-30	 30;
	 186	 189	 8.3e-05	 0.000165	 1.7e-05	 140	 140	 140	 0	 0	 1	-30	 30;
	 71	 73	 0.003141	 0.009669	 0.001125	 140	 140	 140	 0	 0	 0	-30	 30;
	 188	 189	 0	 0.000826	 1e-05	 140	 140	 140	 0	 0	 1	-30	 30;
	 80	 57	 0.001074	 0.003388	 0.000387	 140	 140	 140	 0	 0	 1	-30	 30;
	 175	 80	 0.004545	 0.013884	 0.001614	 140	 140	 140	 0	 0	 1	-30	 30;
	 80	 78	 0.001157	 0.001488	 0.000281	 90	 90	 90	 0	 0	 1	-30	 30;
	 22	 57	 0.001074	 0.003388	 0.000387	 140	 140	 140	 0	 0	 1	-30	 30;
	 20	 22	 0.000661	 0.001901	 0.000225	 114	 114	 114	 0	 0	 1	-30	 30;
	 87	 57	 0.009339	 0.025289	 0.002592	 120	 120	 120	 0	 0	 1	-30	 30;
	 168	 87	 0.005702	 0.014545	 0.001534	 120	 120	 120	 0	 0	 1	-30	 30;
	 87	 84	 0.005537	 0.009339	 0.00097	 90	 90	 90	 0	 0	 1	-30	 30;
	 107	 57	 0.009339	 0.025289	 0.002592	 120	 120	 120	 0	 0	 1	-30	 30;
	 93	 107	 0.005702	 0.01438	 0.001513	 120	 120	 120	 0	 0	 1	-30	 30;
	 169	 93	 8.3e-05	 0.000248	 1.9e-05	 140	 140	 140	 0	 0	 1	-30	 30;
	 107	 106	 0.005537	 0.009256	 0.000961	 90	 90	 90	 0	 0	 1	-30	 30;
	 92	 93	 0.000165	 0.000413	 5.3e-05	 140	 140	 140	 0	 0	 1	-30	 30;
	 64	 56	 0.012479	 0.038265	 0.004414	 114	 114	 114	 0	 0	 1	-30	 30;
	 102	 64	 0.000909	 0.003388	 0.00039	 114	 114	 114	 0	 0	 1	-30	 30;
	 62	 64	 0.000413	 0.001322	 0.000128	 114	 114	 114	 0	 0	 1	-30	 30;
	 161	 58	 0.00876	 0.026942	 0.003112	 114	 114	 114	 0	 0	 1	-30	 30;
	 65	 161	 0.003802	 0.012066	 0.001396	 140	 140	 140	 0	 0	 1	-30	 30;
	 103	 65	 0.000826	 0.002562	 0.000293	 114	 114	 114	 0	 0	 1	-30	 30;
	 160	 161	 0.002066	 0.006364	 0.000753	 140	 140	 140	 0	 0	 1	-30	 30;
	 61	 65	 0.000413	 0.001322	 0.00016	 114	 114	 114	 0	 0	 1	-30	 30;
	 155	 56	 0.003719	 0.009008	 0.000999	 120	 120	 120	 0	 0	 1	-30	 30;
	 154	 155	 0.002645	 0.006116	 0.00129	 140	 140	 140	 0	 0	 1	-30	 30;
	 81	 56	 0.00157	 0.004793	 0.000566	 140	 140	 140	 0	 0	 1	-30	 30;
	 118	 81	 0.007438	 0.022562	 0.00266	 140	 140	 140	 0	 0	 1	-30	 30;
	 81	 79	 0.000744	 0.001405	 0.000293	 120	 120	 120	 0	 0	 1	-30	 30;
	 116	 118	 0.000248	 0.000496	 4.6e-05	 90	 90	 90	 0	 0	 1	-30	 30;
	 91	 56	 0.00876	 0.026529	 0.003124	 140	 140	 140	 0	 0	 1	-30	 30;
	 168	 38	 0.001818	 0.00562	 0.000665	 140	 140	 140	 0	 0	 1	-30	 30;
	 38	 37	 0.000579	 0.001653	 0.000194	 140	 140	 140	 0	 0	 1	-30	 30;
	 54	 58	 0.007521	 0.023058	 0.002413	 120	 120	 120	 0	 0	 1	-30	 30;
	 85	 54	 0.000331	 0.001157	 0.000116	 114	 114	 114	 0	 0	 1	-30	 30;
	 52	 54	 0.002397	 0.007521	 0.000847	 114	 114	 114	 0	 0	 1	-30	 30;
	 178	 18	 0.02405	 0.076281	 0.008259	 140	 140	 140	 0	 0	 1	-30	 30;
	 117	 41	 0.005785	 0.016116	 0.001876	 120	 120	 120	 0	 0	 1	-30	 30;
	 90	 117	 0.002066	 0.006446	 0.000748	 140	 140	 140	 0	 0	 1	-30	 30;
	 115	 117	 0.000248	 0.000496	 4.6e-05	 90	 90	 90	 0	 0	 1	-30	 30;
	 173	 147	 0.019256	 0.061488	 0.006558	 140	 140	 140	 0	 0	 1	-30	 30;
	 176	 173	 0.010413	 0.033471	 0.003533	 140	 140	 140	 0	 0	 1	-30	 30;
	 172	 173	 0.001653	 0.005537	 0.000525	 140	 140	 140	 0	 0	 1	-30	 30;
	 166	 152	 0.004711	 0.014628	 0.001667	 114	 114	 114	 0	 0	 1	-30	 30;
	 126	 27	 0.004793	 0.015785	 0.001561	 140	 140	 140	 0	 0	 1	-30	 30;
	 103	 126	 0.007438	 0.02405	 0.002522	 114	 114	 114	 0	 0	 1	-30	 30;
	 124	 126	 8.3e-05	 0.000826	 1.9e-05	 140	 140	 140	 0	 0	 1	-30	 30;
	 66	 102	 0.000744	 0.002314	 0.00024	 114	 114	 114	 0	 0	 1	-30	 30;
	 125	 66	 0.006777	 0.021736	 0.002294	 114	 114	 114	 0	 0	 1	-30	 30;
	 63	 66	 0.000909	 0.003141	 0.000298	 114	 114	 114	 0	 0	 1	-30	 30;
	 178	 68	 0.003554	 0.011157	 0.001258	 140	 140	 140	 0	 0	 1	-30	 30;
	 178	 104	 0.009421	 0.029917	 0.003214	 140	 140	 140	 0	 0	 1	-30	 30;
	 159	 120	 0.007107	 0.022066	 0.002517	 140	 140	 140	 0	 0	 1	-30	 30;
	 153	 159	 0.000992	 0.003058	 0.000351	 114	 114	 114	 0	 0	 1	-30	 30;
	 158	 159	 0.00124	 0.003636	 0.000436	 140	 140	 140	 0	 0	 1	-30	 30;
	 57	 44	 0.004959	 0.016694	 0.001597	 140	 140	 140	 0	 0	 1	-30	 30;
	 57	 45	 0.003388	 0.010248	 0.001217	 140	 140	 140	 0	 0	 1	-30	 30;
	 167	 165	 0.003388	 0.011488	 0.001096	 140	 140	 140	 0	 0	 1	-30	 30;
	 17	 143	 0.010992	 0.027851	 0.003979	 120	 120	 120	 0	 0	 1	-30	 30;
	 17	 171	 0.005785	 0.020496	 0.002033	 114	 114	 114	 0	 0	 1	-30	 30;
	 16	 17	 0.000248	 0.000826	 9.7e-05	 140	 140	 140	 0	 0	 1	-30	 30;
	 23	 57	 0.000413	 0.00124	 0.000133	 114	 114	 114	 0	 0	 1	-30	 30;
	 25	 23	 0.002727	 0.007686	 0.000794	 120	 120	 120	 0	 0	 1	-30	 30;
	 55	 25	 0.00438	 0.014132	 0.001486	 114	 114	 114	 0	 0	 1	-30	 30;
	 86	 55	 0.000331	 0.001074	 0.000123	 114	 114	 114	 0	 0	 1	-30	 30;
	 21	 23	 0.00124	 0.003884	 0.000452	 114	 114	 114	 0	 0	 1	-30	 30;
	 25	 24	 0.003388	 0.011405	 0.001089	 114	 114	 114	 0	 0	 1	-30	 30;
	 53	 55	 0.002231	 0.006942	 0.000784	 114	 114	 114	 0	 0	 1	-30	 30;
	 42	 82	 0.004959	 0.015124	 0.001793	 140	 140	 140	 0	 0	 1	-30	 30;
	 168	 148	 0.002314	 0.007355	 0.000784	 140	 140	 140	 0	 0	 1	-30	 30;
	 76	 157	 0.008182	 0.020331	 0.002188	 120	 120	 120	 0	 0	 1	-30	 30;
	 180	 76	 0.004711	 0.011735	 0.001341	 120	 120	 120	 0	 0	 1	-30	 30;
	 74	 76	 0.000909	 0.002066	 0.000237	 120	 120	 120	 0	 0	 1	-30	 30;
	 146	 187	 0.001405	 0.003471	 0.000506	 120	 120	 120	 0	 0	 1	-30	 30;
	 176	 163	 0.017603	 0.056281	 0.005973	 140	 140	 140	 0	 0	 1	-30	 30;
	 18	 143	 0.008595	 0.027603	 0.002909	 140	 140	 140	 0	 0	 1	-30	 30;
	 177	 144	 0.026198	 0.08405	 0.008869	 114	 114	 114	 0	 0	 1	-30	 30;
	 111	 143	 0.040248	 0.129587	 0.013608	 140	 140	 140	 0	 0	 1	-30	 30;
	 164	 33	 0.006364	 0.02124	 0.002072	 140	 140	 140	 0	 0	 1	-30	 30;
	 83	 178	 0.011735	 0.037107	 0.004029	 114	 114	 114	 0	 0	 1	-30	 30;
	 103	 184	 0.012893	 0.046446	 0.004487	 114	 114	 114	 0	 0	 1	-30	 30;
	 110	 138	 0.019422	 0.062397	 0.006585	 114	 114	 114	 0	 0	 1	-30	 30;
	 137	 144	 0.020827	 0.067025	 0.007069	 140	 140	 140	 0	 0	 1	-30	 30;
	 58	 32	 0.007603	 0.023141	 0.002713	 140	 140	 140	 0	 0	 1	-30	 30;
	 43	 191	 0.004132	 0.012645	 0.001498	 140	 140	 140	 0	 0	 1	-30	 30;
	 95	 12	 0.012479	 0.039669	 0.004279	 140	 140	 140	 0	 0	 1	-30	 30;
	 103	 123	 0.027686	 0.071488	 0.007393	 120	 120	 120	 0	 0	 1	-30	 30;
	 11	 131	 0.000826	 0.002645	 0.000305	 140	 140	 140	 0	 0	 1	-30	 30;
	 12	 132	 0.000826	 0.002645	 0.00031	 140	 140	 140	 0	 0	 1	-30	 30;
	 150	 157	 0.006116	 0.016612	 0.001842	 120	 120	 120	 0	 0	 1	-30	 30;
	 130	 143	 0.003141	 0.009421	 0.001118	 140	 140	 140	 0	 0	 1	-30	 30;
	 13	 149	 0.000744	 0.002314	 0.000254	 114	 114	 114	 0	 0	 1	-30	 30;
	 14	 150	 0.000661	 0.002149	 0.000237	 114	 114	 114	 0	 0	 1	-30	 30;
	 46	 162	 0.000331	 0.000992	 0.000121	 114	 114	 114	 0	 0	 1	-30	 30;
	 47	 163	 0.000331	 0.000992	 0.000119	 114	 114	 114	 0	 0	 1	-30	 30;
	 88	 11	 0.000331	 0.000992	 0.000114	 114	 114	 114	 0	 0	 1	-30	 30;
	 89	 12	 0.000413	 0.001322	 0.000157	 114	 114	 114	 0	 0	 1	-30	 30;
	 39	 42	 0.000165	 0.000579	 6.5e-05	 114	 114	 114	 0	 0	 1	-30	 30;
	 40	 43	 0.000165	 0.000579	 6.8e-05	 114	 114	 114	 0	 0	 1	-30	 30;
	 60	 137	 0.004628	 0.02157	 0.003942	 114	 114	 114	 0	 0	 0	-30	 30;
	 195	 109	 0.010413	 0.033554	 0.003543	 140	 140	 140	 0	 0	 1	-30	 30;
	 196	 183	 0.009752	 0.030496	 0.003151	 140	 140	 140	 0	 0	 1	-30	 30;
	 194	 137	 0.005702	 0.018264	 0.001922	 57	 57	 57	 0	 0	 1	-30	 30;
	 193	 138	 0.005702	 0.018264	 0.001922	 57	 57	 57	 0	 0	 1	-30	 30;
	 3	 2	 2.1e-05	 0.000207	 0	 876	 876	 876	 0	 0	 1	-30	 30;
	 6	 5	 2.1e-05	 0.000207	 0	 876	 876	 876	 0	 0	 1	-30	 30;
	 8	 7	 2.1e-05	 0.000207	 0	 876	 876	 876	 0	 0	 1	-30	 30;
	 10	 9	 2.1e-05	 0.000207	 0	 876	 876	 876	 0	 0	 1	-30	 30;
	 12	 11	 8.3e-05	 0.000826	 0	 438	 438	 438	 0	 0	 1	-30	 30;
	 16	 15	 0	 0.0001	 0	 438	 438	 438	 0	 0	 0	-30	 30;
	 19	 18	 8.3e-05	 0.000826	 0	 438	 438	 438	 0	 0	 0	-30	 30;
	 21	 20	 0	 0.0001	 0	 438	 438	 438	 0	 0	 0	-30	 30;
	 27	 26	 0	 0.0001	 0	 438	 438	 438	 0	 0	 0	-30	 30;
	 32	 31	 8.3e-05	 0.000826	 0	 438	 438	 438	 0	 0	 1	-30	 30;
	 34	 33	 8.3e-05	 0.000826	 0	 438	 438	 438	 0	 0	 1	-30	 30;
	 36	 35	 8.3e-05	 0.000826	 0	 438	 438	 438	 0	 0	 1	-30	 30;
	 43	 42	 8.3e-05	 0.000826	 0	 438	 438	 438	 0	 0	 1	-30	 30;
	 45	 44	 0	 0.0001	 0	 438	 438	 438	 0	 0	 0	-30	 30;
	 53	 52	 0	 0.0001	 0	 438	 438	 438	 0	 0	 0	-30	 30;
	 57	 56	 8.3e-05	 0.000826	 0	 438	 438	 438	 0	 0	 0	-30	 30;
	 58	 57	 8.3e-05	 0.000826	 0	 438	 438	 438	 0	 0	 0	-30	 30;
	 56	 58	 8.3e-05	 0.000826	 0	 438	 438	 438	 0	 0	 0	-30	 30;
	 60	 59	 8.3e-05	 0.000826	 0	 438	 438	 438	 0	 0	 1	-30	 30;
	 62	 61	 0	 0.0001	 0	 438	 438	 438	 0	 0	 0	-30	 30;
	 63	 62	 0	 0.0001	 0	 438	 438	 438	 0	 0	 0	-30	 30;
	 68	 67	 8.3e-05	 0.000826	 0	 438	 438	 438	 0	 0	 1	-30	 30;
	 70	 69	 8.3e-05	 0.000826	 0	 438	 438	 438	 0	 0	 1	-30	 30;
	 72	 71	 8.3e-05	 0.000826	 0	 438	 438	 438	 0	 0	 1	-30	 30;
	 83	 82	 8.3e-05	 0.000826	 0	 438	 438	 438	 0	 0	 1	-30	 30;
	 85	 84	 0	 0.0001	 0	 438	 438	 438	 0	 0	 0	-30	 30;
...
];

mpc_regionR2.gencost = [
%	2           startup     shutdown    n           c(n-1)...c0 
	 2	 0	 0	 3	 0	 92.78	 0;
	 2	 0	 0	 3	 0	 92.78	 0;
	 2	 0	 0	 3	 0	 91.16	 0;
	 2	 0	 0	 3	 0	 91.16	 0;
	 2	 0	 0	 3	 0	 91.16	 0;
	 2	 0	 0	 3	 0	 0	 0;
	 2	 0	 0	 3	 0	 0	 0;
	 2	 0	 0	 3	 0	 0	 0;
	 2	 0	 0	 3	 0	 0	 0;
	 2	 0	 0	 3	 0	 0	 0;
	 2	 0	 0	 3	 0	 0	 0;
	 2	 0	 0	 3	 0	 0	 0;
	 2	 0	 0	 3	 0	 0	 0;
	 2	 0	 0	 3	 0	 92.78	 0;
	 2	 0	 0	 3	 0	 92.78	 0;
	 2	 0	 0	 3	 0	 0	 0;
	 2	 0	 0	 3	 0	 0	 0;
	 2	 0	 0	 3	 0	 0	 0;
	 2	 0	 0	 3	 0	 0	 0;
	 2	 0	 0	 3	 0	 0	 0;
	 2	 0	 0	 3	 0	 0	 0;
	 2	 0	 0	 3	 0	 0	 0;
	 2	 0	 0	 3	 0	 0	 0;
	 2	 0	 0	 3	 0	 91.16	 0;
	 2	 0	 0	 3	 0	 91.16	 0;
	 2	 0	 0	 3	 0	 91.16	 0;
	 2	 0	 0	 3	 0	 0	 0;
	 2	 0	 0	 3	 0	 0	 0;
	 2	 0	 0	 3	 0	 0	 0;
];


% -------------------- mpc_regionR3 --------------------

mpc_regionR3.version = '2';
mpc_regionR3.baseMVA = 100.0000;
mpc_regionR3.bus = [
%	bus_i       type        Pd          Qd          Gs          Bs          area        Vm          Va          baseKV      zone        Vmax        Vmin        
	 1	 1	 0	 0	 0	 0	 1	 1.03	 0	 220	 3	 1.11	 0.95;
	 2	 1	 0	 0	 0	 0	 1	 1.03	 0	 220	 3	 1.11	 0.95;
	 3	 1	 0	 0	 0	 0	 1	 1.03	 0	 220	 3	 1.11	 0.95;
	 4	 1	 0	 0	 0	 0	 1	 1.03	 0	 220	 3	 1.11	 0.95;
	 5	 1	 10.46	 2.61	 0	 0	 1	 1.03	 0	 220	 3	 1.11	 0.95;
	 6	 1	 0	 0	 0	 0	 1	 1.03	 0	 220	 3	 1.11	 0.95;
	 7	 1	 0	 0	 0	 0	 1	 1.03	 0	 220	 3	 1.11	 0.95;
	 8	 1	 0	 0	 0	 0	 1	 1.03	 0	 220	 3	 1.11	 0.95;
	 9	 1	 0	 0	 0	 0	 1	 1.03	 0	 220	 3	 1.11	 0.95;
	 10	 1	 0	 0	 0	 0	 1	 1.03	 0	 220	 3	 1.11	 0.95;
	 11	 2	 3.04	 18	 0	 0	 1	 1.03	 0	 220	 3	 1.11	 0.95;
	 12	 2	 2.02	 6	 0	 0	 1	 1.03	 0	 220	 3	 1.11	 0.95;
	 13	 1	 15.81	 3.93	 0	 0	 1	 1.035	 0	 110	 3	 1.12	 0.95;
	 14	 1	 0	 0	 0	 0	 1	 1.035	 0	 110	 3	 1.12	 0.95;
	 15	 1	 23.78	 4.71	 0	 0	 1	 1.035	 0	 110	 3	 1.12	 0.95;
	 16	 2	 0	-0.01	 0	 0	 1	 1.035	 0	 110	 3	 1.12	 0.95;
	 17	 1	 0	 0	 0	 0	 1	 1.035	 0	 110	 3	 1.12	 0.95;
	 18	 1	 8.89	 3.17	 0	 0	 1	 1.035	 0	 110	 3	 1.12	 0.95;
	 19	 1	 0	 0	 0	 0	 1	 1.035	 0	 110	 3	 1.12	 0.95;
	 20	 1	 3.61	 1.77	 0	 0	 1	 1.035	 0	 110	 3	 1.12	 0.95;
	 21	 1	 0	 0	 0	 0	 1	 1.035	 0	 110	 3	 1.12	 0.95;
	 22	 1	 24.43	 6.56	 0	 0	 1	 1.035	 0	 110	 3	 1.12	 0.95;
	 23	 1	 0	 0	 0	 0	 1	 1.035	 0	 110	 3	 1.12	 0.95;
	 24	 1	 19.97	 3.95	 0	 0	 1	 1.035	 0	 110	 3	 1.12	 0.95;
	 25	 1	 0	 0	 0	 0	 1	 1.035	 0	 110	 3	 1.12	 0.95;
	 26	 1	 11.32	 0.91	 0	 0	 1	 1.035	 0	 110	 3	 1.12	 0.95;
	 27	 1	 0	 0	 0	 0	 1	 1.035	 0	 110	 3	 1.12	 0.95;
	 28	 2	 20.93	 6.69	 0	 0	 1	 1.035	 0	 110	 3	 1.12	 0.95;
	 29	 1	 0	 0	 0	 0	 1	 1.035	 0	 110	 3	 1.12	 0.95;
	 30	 2	 0	-0.01	 0	 0	 1	 1.035	 0	 110	 3	 1.12	 0.95;
	 31	 1	 46.87	 22.38	 0	 0	 1	 1.035	 0	 110	 3	 1.12	 0.95;
	 32	 2	 0	-0.01	 0	 0	 1	 1.035	 0	 110	 3	 1.12	 0.95;
	 33	 2	 27.21	 8.08	 0	 0	 1	 1.035	 0	 110	 3	 1.12	 0.95;
	 34	 2	 0	 1.5	 0	 0	 1	 1.035	 0	 110	 3	 1.12	 0.95;
	 35	 2	 8	 3	 0	 0	 1	 1.035	 0	 110	 3	 1.12	 0.95;
	 36	 1	 0	 0	 0	 0	 1	 1.035	 0	 110	 3	 1.12	 0.95;
	 37	 1	 9.81	 1.95	 0	 0	 1	 1.035	 0	 110	 3	 1.12	 0.95;
	 38	 1	 0	 0	 0	 0	 1	 1.035	 0	 110	 3	 1.12	 0.95;
	 39	 1	 10.96	 2.54	 0	 0	 1	 1.035	 0	 110	 3	 1.12	 0.95;
	 40	 1	 9.99	 2.17	 0	 0	 1	 1.035	 0	 110	 3	 1.12	 0.95;
	 41	 1	 0	 0	 0	 0	 1	 1.035	 0	 110	 3	 1.12	 0.95;
	 42	 1	 4.57	 0.86	 0	 0	 1	 1.035	 0	 110	 3	 1.12	 0.95;
	 43	 1	 1.08	 0.43	 0	 0	 1	 1.035	 0	 110	 3	 1.12	 0.95;
	 44	 1	 0.48	 0.09	 0	 0	 1	 1.035	 0	 110	 3	 1.12	 0.95;
	 45	 1	 0	 0	 0	 0	 1	 1.035	 0	 110	 3	 1.12	 0.95;
	 46	 1	 2.41	 0.35	 0	 0	 1	 1.035	 0	 110	 3	 1.12	 0.95;
	 47	 1	 0	 0	 0	 0	 1	 1.035	 0	 110	 3	 1.12	 0.95;
	 48	 1	 0.12	 0.09	 0	 0	 1	 1.035	 0	 110	 3	 1.12	 0.95;
...